   Input file: soil_solution_example.phrq
  Output file: soil_solution_example.phrq.out
Database file: ../database/redox.dat

------------------
Reading data base.
------------------

	SOLUTION_MASTER_SPECIES
	SOLUTION_SPECIES
	PHASES
	EXCHANGE_MASTER_SPECIES
	EXCHANGE_SPECIES
	SURFACE_MASTER_SPECIES
	SURFACE_SPECIES
	RATES
	END
------------------------------------
Reading input data for simulation 1.
------------------------------------

	DATABASE ../database/redox.dat
	TITLE simulate soil solution
	SOLUTION 1
	units mmol/L
	pH    7  
	temperature 	 24
	C(4)        4.47  # in equilibrium with CO2 in atmosphere, 400 pm
	Cl          1.73   
	Br          0.00412
	Nitrate        4.92
	Sulfate        1.7
	Al          0.01
	Ferric       0.61
	Na          1.7   charge
	Mg          0.55
	Ca          0.49
	K           1.3
	  SAVE SOLUTION 1
	END
-----
TITLE
-----

 simulate soil solution

-------------------------------------------
Beginning of initial solution calculations.
-------------------------------------------

Initial solution 1.	

-----------------------------Solution composition------------------------------

	Elements           Molality       Moles

	Al                1.001e-05   1.001e-05
	Br                4.123e-06   4.123e-06
	C(4)              4.473e-03   4.473e-03
	Ca                4.904e-04   4.904e-04
	Cl                1.731e-03   1.731e-03
	Ferric            6.104e-04   6.104e-04
	K                 1.301e-03   1.301e-03
	Mg                5.504e-04   5.504e-04
	Na                1.013e-02   1.013e-02  Charge balance
	Nitrate           4.924e-03   4.924e-03
	Sulfate           1.701e-03   1.701e-03

----------------------------Description of solution----------------------------

                                       pH  =   7.000    
                                       pe  =   4.000    
      Specific Conductance (µS/cm,  24°C)  = 1403
                        Activity of water  =   1.000
                 Ionic strength (mol/kgw)  =   1.593e-02
                       Mass of water (kg)  =   1.000e+00
                 Total alkalinity (eq/kg)  =   4.096e-03
                       Total CO2 (mol/kg)  =   4.473e-03
                         Temperature (°C)  =  24.00
                  Electrical balance (eq)  =   4.337e-19
 Percent error, 100*(Cat-|An|)/(Cat+|An|)  =   0.00
                               Iterations  =  10
                                  Total H  = 1.110177e+02
                                  Total O  = 5.554205e+01

----------------------------Distribution of species----------------------------

                                               Log       Log       Log    mole V
   Species          Molality    Activity  Molality  Activity     Gamma   cm³/mol

   H+              1.114e-07   1.000e-07    -6.953    -7.000    -0.047      0.00
   OH-             1.055e-07   9.274e-08    -6.977    -7.033    -0.056     (0)  
   H2O             5.551e+01   9.996e-01     1.744    -0.000     0.000     18.06
Al            1.001e-05
   Al(OH)4-        9.203e-06   8.115e-06    -5.036    -5.091    -0.055     (0)  
   Al(OH)3         4.349e-07   4.365e-07    -6.362    -6.360     0.002     (0)  
   Al(OH)2+        3.620e-07   3.192e-07    -6.441    -6.496    -0.055     (0)  
   AlOH+2          7.356e-09   4.448e-09    -8.133    -8.352    -0.218     (0)  
   AlSulfateO4+    1.588e-10   1.400e-10    -9.799    -9.854    -0.055     (0)  
   Al+3            1.261e-10   4.782e-11    -9.899   -10.320    -0.421     (0)  
   Al(SulfateO4)2-   4.689e-12   4.135e-12   -11.329   -11.384    -0.055     (0)  
   AlHSulfateO4+2   2.035e-18   1.231e-18   -17.691   -17.910    -0.218     (0)  
Br            4.123e-06
   Br-             4.123e-06   3.615e-06    -5.385    -5.442    -0.057     (0)  
C(4)          4.473e-03
   HCO3-           3.687e-03   3.267e-03    -2.433    -2.486    -0.053     (0)  
   CO2             7.414e-04   7.442e-04    -3.130    -3.128     0.002     (0)  
   NaHCO3          1.628e-05   1.634e-05    -4.788    -4.787     0.002     (0)  
   MgHCO3+         1.273e-05   1.123e-05    -4.895    -4.950    -0.055     (0)  
   CaHCO3+         1.223e-05   1.084e-05    -4.912    -4.965    -0.053     (0)  
   CO3-2           2.435e-06   1.501e-06    -5.614    -5.824    -0.210     (0)  
   CaCO3           6.507e-07   6.531e-07    -6.187    -6.185     0.002     (0)  
   MgCO3           4.146e-07   4.162e-07    -6.382    -6.381     0.002     (0)  
   NaCO3-          2.680e-07   2.364e-07    -6.572    -6.626    -0.055     (0)  
Ca            4.904e-04
   Ca+2            4.287e-04   2.641e-04    -3.368    -3.578    -0.210     (0)  
   CaSulfateO4     4.880e-05   4.898e-05    -4.312    -4.310     0.002     (0)  
   CaHCO3+         1.223e-05   1.084e-05    -4.912    -4.965    -0.053     (0)  
   CaCO3           6.507e-07   6.531e-07    -6.187    -6.185     0.002     (0)  
   CaOH+           4.969e-10   4.382e-10    -9.304    -9.358    -0.055     (0)  
   CaHSulfateO4+   3.214e-11   2.834e-11   -10.493   -10.548    -0.055     (0)  
Cl            1.731e-03
   Cl-             1.731e-03   1.522e-03    -2.762    -2.818    -0.056     (0)  
   FerricCl+2      9.766e-14   5.905e-14   -13.010   -13.229    -0.218     (0)  
   FerricCl2+      4.701e-16   4.145e-16   -15.328   -15.382    -0.055     (0)  
   FerricCl3       6.287e-20   6.310e-20   -19.202   -19.200     0.002     (0)  
Ferric        6.104e-04
   Ferric(OH)3     3.157e-04   3.168e-04    -3.501    -3.499     0.002     (0)  
   Ferric(OH)2+    2.915e-04   2.570e-04    -3.535    -3.590    -0.055     (0)  
   Ferric(OH)4-    3.146e-06   2.774e-06    -5.502    -5.557    -0.055     (0)  
   FerricOH+2      1.334e-07   8.067e-08    -6.875    -7.093    -0.218     (0)  
   FerricSulfateO4+   1.513e-11   1.334e-11   -10.820   -10.875    -0.055     (0)  
   Ferric+3        3.498e-12   1.326e-12   -11.456   -11.877    -0.421     (0)  
   Ferric2(OH)2+4   1.366e-12   1.826e-13   -11.865   -12.739    -0.874     (0)  
   Ferric(SulfateO4)2-   3.093e-13   2.727e-13   -12.510   -12.564    -0.055     (0)  
   Ferric3(OH)4+5   2.496e-13   1.076e-14   -12.603   -13.968    -1.366     (0)  
   FerricCl+2      9.766e-14   5.905e-14   -13.010   -13.229    -0.218     (0)  
   FerricCl2+      4.701e-16   4.145e-16   -15.328   -15.382    -0.055     (0)  
   FerricHSulfateO4+2   5.911e-18   3.574e-18   -17.228   -17.447    -0.218     (0)  
   FerricCl3       6.287e-20   6.310e-20   -19.202   -19.200     0.002     (0)  
H(0)          1.425e-25
   H2              7.124e-26   7.151e-26   -25.147   -25.146     0.002     (0)  
K             1.301e-03
   K+              1.293e-03   1.137e-03    -2.889    -2.944    -0.056     (0)  
   KSulfateO4-     8.348e-06   7.362e-06    -5.078    -5.133    -0.055     (0)  
   KOH             3.925e-11   3.939e-11   -10.406   -10.405     0.002     (0)  
Mg            5.504e-04
   Mg+2            4.742e-04   2.950e-04    -3.324    -3.530    -0.206     (0)  
   MgSulfateO4     6.300e-05   6.323e-05    -4.201    -4.199     0.002     (0)  
   MgHCO3+         1.273e-05   1.123e-05    -4.895    -4.950    -0.055     (0)  
   MgCO3           4.146e-07   4.162e-07    -6.382    -6.381     0.002     (0)  
   MgOH+           1.109e-08   9.780e-09    -7.955    -8.010    -0.055     (0)  
Na            1.013e-02
   Na+             1.007e-02   8.895e-03    -1.997    -2.051    -0.054     (0)  
   NaSulfateO4-    4.713e-05   4.156e-05    -4.327    -4.381    -0.055     (0)  
   NaHCO3          1.628e-05   1.634e-05    -4.788    -4.787     0.002     (0)  
   NaCO3-          2.680e-07   2.364e-07    -6.572    -6.626    -0.055     (0)  
   NaOH            5.853e-10   5.874e-10    -9.233    -9.231     0.002     (0)  
Nitrate       4.924e-03
   NitrateO3-      4.924e-03   4.342e-03    -2.308    -2.362    -0.055     (0)  
O(0)          0.000e+00
   O2              0.000e+00   0.000e+00   -42.414   -42.413     0.002     (0)  
Sulfate       1.701e-03
   SulfateO4-2     1.534e-03   9.381e-04    -2.814    -3.028    -0.214     (0)  
   MgSulfateO4     6.300e-05   6.323e-05    -4.201    -4.199     0.002     (0)  
   CaSulfateO4     4.880e-05   4.898e-05    -4.312    -4.310     0.002     (0)  
   NaSulfateO4-    4.713e-05   4.156e-05    -4.327    -4.381    -0.055     (0)  
   KSulfateO4-     8.348e-06   7.362e-06    -5.078    -5.133    -0.055     (0)  
   HSulfateO4-     1.012e-08   8.925e-09    -7.995    -8.049    -0.055     (0)  
   AlSulfateO4+    1.588e-10   1.400e-10    -9.799    -9.854    -0.055     (0)  
   CaHSulfateO4+   3.214e-11   2.834e-11   -10.493   -10.548    -0.055     (0)  
   FerricSulfateO4+   1.513e-11   1.334e-11   -10.820   -10.875    -0.055     (0)  
   Al(SulfateO4)2-   4.689e-12   4.135e-12   -11.329   -11.384    -0.055     (0)  
   Ferric(SulfateO4)2-   3.093e-13   2.727e-13   -12.510   -12.564    -0.055     (0)  
   FerricHSulfateO4+2   5.911e-18   3.574e-18   -17.228   -17.447    -0.218     (0)  
   AlHSulfateO4+2   2.035e-18   1.231e-18   -17.691   -17.910    -0.218     (0)  

------------------------------Saturation indices-------------------------------

  Phase               SI** log IAP   log K(297 K,   1 atm)

  Al(OH)3(a)       -0.19     10.68   10.87  Al(OH)3
  FixpH            -7.00     -7.00    0.00  H+
  Gibbsite          2.51     10.68    8.17  Al(OH)3
  H2(g)           -22.00    -25.15   -3.15  H2
  H2O(g)           -1.54     -0.00    1.54  H2O
  Halite           -6.45     -4.87    1.58  NaCl
  redoxAlunite      3.31      2.04   -1.28  KAl3(SulfateO4)2(OH)6
  redoxAnhydrite   -2.25     -6.61   -4.36  CaSulfateO4
  redoxAragonite   -1.07     -9.40   -8.33  CaCO3
  redoxCalcite     -0.93     -9.40   -8.47  CaCO3
  redoxCO2(g)      -1.67     -3.13   -1.46  CO2
  redoxDolomite    -1.69    -18.76  -17.07  CaMg(CO3)2
  redoxFe(OH)3(a)   4.23      9.12    4.89  Ferric(OH)3
  redoxGoethite    10.09      9.12   -0.96  FerricOOH
  redoxGypsum      -2.03     -6.61   -4.58  CaSulfateO4:2H2O
  redoxHematite    22.18     18.24   -3.93  Ferric2O3
  redoxJarosite-K   6.50     -2.63   -9.13  KFerric3(SulfateO4)2(OH)6

**For a gas, SI = log10(fugacity). Fugacity = pressure * phi / 1 atm.
  For ideal gases, phi = 1.

------------------
End of simulation.
------------------

------------------------------------
Reading input data for simulation 2.
------------------------------------

	USE SOLUTION 1
	EQUILIBRIUM_PHASES 1
	  redoxFe(OH)3(a) 0.0 2.63879401E-04
	SURFACE 1
	Hfo_w redoxFe(OH)3(a) 0.2 1.068E4
	Hfo_s redoxFe(OH)3(a) 0.005 1.068E4
	  H_a   3.837E-04  3.417E+04      0.540
	  H_b   3.837E-04
	 H_c   3.837E-04
	 H_d  3.837E-04
	  H_e   1.919E-04
	 H_f   1.919E-04
	 H_g  1.919E-04
	 H_h  1.919E-04
	  H_ab  6.378E-05
	 H_ad  6.378E-05
	 H_af  6.378E-05
	 H_ah  6.378E-05
	  H_bc  6.378E-05
	 H_be  6.378E-05
	 H_bg  6.378E-05
	 H_cd  6.378E-05
	  H_cf  6.378E-05
	 H_ch  6.378E-05
	 H_de  6.378E-05
	 H_dg  6.378E-05
	  equilibrate 1
	REACTION 1
	K2SulfateO4  0.0001  #each step 0.0001 mol
	 40 in 40 steps
	SAVE SOLUTION 1
	SELECTED_OUTPUT
	reset false
	file soil_solution.txt
	USER_PUNCH
	start
	heading pH Na  K  Ca  Mg  NO3  Cl  SO4 HCO3
	10 PUNCH -la("H+")
	20 PUNCH tot("Na")  tot("K")  tot("Ca")  tot("Mg") tot("Nitrate")  tot("Cl")  tot("Sulfate") tot("C(4)")
	end
	END
WARNING: Suggest using master species formula in SURFACE 
	 for surface related to equilibrium_phase: H_aH.
WARNING: Suggest using master species formula in SURFACE 
	 for surface related to equilibrium_phase: H_abH2.
WARNING: Suggest using master species formula in SURFACE 
	 for surface related to equilibrium_phase: H_adH2.
WARNING: Suggest using master species formula in SURFACE 
	 for surface related to equilibrium_phase: H_afH2.
WARNING: Suggest using master species formula in SURFACE 
	 for surface related to equilibrium_phase: H_ahH2.
WARNING: Suggest using master species formula in SURFACE 
	 for surface related to equilibrium_phase: H_bH.
WARNING: Suggest using master species formula in SURFACE 
	 for surface related to equilibrium_phase: H_bcH2.
WARNING: Suggest using master species formula in SURFACE 
	 for surface related to equilibrium_phase: H_beH2.
WARNING: Suggest using master species formula in SURFACE 
	 for surface related to equilibrium_phase: H_bgH2.
WARNING: Suggest using master species formula in SURFACE 
	 for surface related to equilibrium_phase: H_cH.
WARNING: Suggest using master species formula in SURFACE 
	 for surface related to equilibrium_phase: H_cdH2.
WARNING: Suggest using master species formula in SURFACE 
	 for surface related to equilibrium_phase: H_cfH2.
WARNING: Suggest using master species formula in SURFACE 
	 for surface related to equilibrium_phase: H_chH2.
WARNING: Suggest using master species formula in SURFACE 
	 for surface related to equilibrium_phase: H_dH.
WARNING: Suggest using master species formula in SURFACE 
	 for surface related to equilibrium_phase: H_deH2.
WARNING: Suggest using master species formula in SURFACE 
	 for surface related to equilibrium_phase: H_dgH2.
WARNING: Suggest using master species formula in SURFACE 
	 for surface related to equilibrium_phase: H_eH.
WARNING: Suggest using master species formula in SURFACE 
	 for surface related to equilibrium_phase: H_fH.
WARNING: Suggest using master species formula in SURFACE 
	 for surface related to equilibrium_phase: H_gH.
WARNING: Suggest using master species formula in SURFACE 
	 for surface related to equilibrium_phase: H_hH.
WARNING: Suggest using master species formula in SURFACE 
	 for surface related to equilibrium_phase: Hfo_sOH.
WARNING: Suggest using master species formula in SURFACE 
	 for surface related to equilibrium_phase: Hfo_wOH.
WARNING: Suggest using master species formula in SURFACE 
	 for surface related to equilibrium_phase: H_aH.
WARNING: Suggest using master species formula in SURFACE 
	 for surface related to equilibrium_phase: H_abH2.
WARNING: Suggest using master species formula in SURFACE 
	 for surface related to equilibrium_phase: H_adH2.
WARNING: Suggest using master species formula in SURFACE 
	 for surface related to equilibrium_phase: H_afH2.
WARNING: Suggest using master species formula in SURFACE 
	 for surface related to equilibrium_phase: H_ahH2.
WARNING: Suggest using master species formula in SURFACE 
	 for surface related to equilibrium_phase: H_bH.
WARNING: Suggest using master species formula in SURFACE 
	 for surface related to equilibrium_phase: H_bcH2.
WARNING: Suggest using master species formula in SURFACE 
	 for surface related to equilibrium_phase: H_beH2.
WARNING: Suggest using master species formula in SURFACE 
	 for surface related to equilibrium_phase: H_bgH2.
WARNING: Suggest using master species formula in SURFACE 
	 for surface related to equilibrium_phase: H_cH.
WARNING: Suggest using master species formula in SURFACE 
	 for surface related to equilibrium_phase: H_cdH2.
WARNING: Suggest using master species formula in SURFACE 
	 for surface related to equilibrium_phase: H_cfH2.
WARNING: Suggest using master species formula in SURFACE 
	 for surface related to equilibrium_phase: H_chH2.
WARNING: Suggest using master species formula in SURFACE 
	 for surface related to equilibrium_phase: H_dH.
WARNING: Suggest using master species formula in SURFACE 
	 for surface related to equilibrium_phase: H_deH2.
WARNING: Suggest using master species formula in SURFACE 
	 for surface related to equilibrium_phase: H_dgH2.
WARNING: Suggest using master species formula in SURFACE 
	 for surface related to equilibrium_phase: H_eH.
WARNING: Suggest using master species formula in SURFACE 
	 for surface related to equilibrium_phase: H_fH.
WARNING: Suggest using master species formula in SURFACE 
	 for surface related to equilibrium_phase: H_gH.
WARNING: Suggest using master species formula in SURFACE 
	 for surface related to equilibrium_phase: H_hH.
WARNING: Suggest using master species formula in SURFACE 
	 for surface related to equilibrium_phase: Hfo_sOH.
WARNING: Suggest using master species formula in SURFACE 
	 for surface related to equilibrium_phase: Hfo_wOH.
------------------------------------------------------
Beginning of initial surface-composition calculations.
------------------------------------------------------

Surface 1.	

Diffuse Double Layer Surface-Complexation Model

H             
	 -2.343e-03  Surface charge, eq
	 -1.225e-02  sigma, C/m²
	 -3.859e-02  psi, V
	  1.507e+00  -F*psi/RT
	  4.514e+00  exp(-F*psi/RT)
	  3.417e+04  specific area, m²/g
	  1.845e+04  m² for   5.400e-01 g


H_a           
	  3.837e-04  moles
	                                   Mole                     Log
	Species               Moles    Fraction    Molality    Molality

	H_a-              3.836e-04       1.000   3.836e-04      -3.416
	H_aCa+            5.068e-08       0.000   5.068e-08      -7.295
	H_aH              6.737e-09       0.000   6.737e-09      -8.172

H_ab          
	  6.378e-05  moles
	                                   Mole                     Log
	Species               Moles    Fraction    Molality    Molality

	H_ab-2            6.376e-05       1.000   6.376e-05      -4.195
	H_abH-            1.442e-08       0.000   1.442e-08      -7.841
	H_abCa            2.664e-09       0.000   2.664e-09      -8.575
	H_abH2            2.533e-13       0.000   2.533e-13     -12.596

H_ad          
	  6.378e-05  moles
	                                   Mole                     Log
	Species               Moles    Fraction    Molality    Molality

	H_ad-2            6.100e-05       0.956   6.100e-05      -4.215
	H_adH-            2.344e-06       0.037   2.344e-06      -5.630
	H_adCa            4.328e-07       0.007   4.328e-07      -6.364
	H_adH2            4.116e-11       0.000   4.116e-11     -10.386

H_af          
	  6.378e-05  moles
	                                   Mole                     Log
	Species               Moles    Fraction    Molality    Molality

	H_afH-            6.249e-05       0.980   6.249e-05      -4.204
	H_afCa            1.028e-06       0.016   1.028e-06      -5.988
	H_af-2            2.638e-07       0.004   2.638e-07      -6.579
	H_afH2            1.097e-09       0.000   1.097e-09      -8.960

H_ah          
	  6.378e-05  moles
	                                   Mole                     Log
	Species               Moles    Fraction    Molality    Molality

	H_ahH-            6.378e-05       1.000   6.378e-05      -4.195
	H_ahCa            1.867e-09       0.000   1.867e-09      -8.729
	H_ahH2            1.120e-09       0.000   1.120e-09      -8.951
	H_ah-2            5.625e-11       0.000   5.625e-11     -10.250

H_b           
	  3.837e-04  moles
	                                   Mole                     Log
	Species               Moles    Fraction    Molality    Molality

	H_b-              3.830e-04       0.998   3.830e-04      -3.417
	H_bCa+            6.517e-07       0.002   6.517e-07      -6.186
	H_bH              8.663e-08       0.000   8.663e-08      -7.062

H_bc          
	  6.378e-05  moles
	                                   Mole                     Log
	Species               Moles    Fraction    Molality    Molality

	H_bc-2            6.314e-05       0.990   6.314e-05      -4.200
	H_bcCa            4.480e-07       0.007   4.480e-07      -6.349
	H_bcH-            1.883e-07       0.003   1.883e-07      -6.725
	H_bcH2            4.260e-11       0.000   4.260e-11     -10.371

H_be          
	  6.378e-05  moles
	                                   Mole                     Log
	Species               Moles    Fraction    Molality    Molality

	H_beH-            4.934e-05       0.774   4.934e-05      -4.307
	H_be-2            1.441e-05       0.226   1.441e-05      -4.841
	H_beCa            1.860e-08       0.000   1.860e-08      -7.730
	H_beH2            1.116e-08       0.000   1.116e-08      -7.952

H_bg          
	  6.378e-05  moles
	                                   Mole                     Log
	Species               Moles    Fraction    Molality    Molality

	H_bgH-            6.374e-05       0.999   6.374e-05      -4.196
	H_bgCa            2.403e-08       0.000   2.403e-08      -7.619
	H_bgH2            1.442e-08       0.000   1.442e-08      -7.841
	H_bg-2            3.889e-09       0.000   3.889e-09      -8.410

H_c           
	  3.837e-04  moles
	                                   Mole                     Log
	Species               Moles    Fraction    Molality    Molality

	H_c-              3.742e-04       0.975   3.742e-04      -3.427
	H_cCa+            8.395e-06       0.022   8.395e-06      -5.076
	H_cH              1.116e-06       0.003   1.116e-06      -5.952

H_cd          
	  6.378e-05  moles
	                                   Mole                     Log
	Species               Moles    Fraction    Molality    Molality

	H_cdCa            3.425e-05       0.537   3.425e-05      -4.465
	H_cd-2            2.843e-05       0.446   2.843e-05      -4.546
	H_cdH-            1.092e-06       0.017   1.092e-06      -5.962
	H_cdH2            3.257e-09       0.000   3.257e-09      -8.487

H_cf          
	  6.378e-05  moles
	                                   Mole                     Log
	Species               Moles    Fraction    Molality    Molality

	H_cfH-            6.301e-05       0.988   6.301e-05      -4.201
	H_cfCa            3.132e-07       0.005   3.132e-07      -6.504
	H_cf-2            2.660e-07       0.004   2.660e-07      -6.575
	H_cfH2            1.879e-07       0.003   1.879e-07      -6.726

H_ch          
	  6.378e-05  moles
	                                   Mole                     Log
	Species               Moles    Fraction    Molality    Molality

	H_chH-            6.328e-05       0.992   6.328e-05      -4.199
	H_chCa            3.145e-07       0.005   3.145e-07      -6.502
	H_chH2            1.887e-07       0.003   1.887e-07      -6.724
	H_ch-2            5.581e-11       0.000   5.581e-11     -10.253

H_d           
	  3.837e-04  moles
	                                   Mole                     Log
	Species               Moles    Fraction    Molality    Molality

	H_d-              2.891e-04       0.753   2.891e-04      -3.539
	H_dCa+            8.354e-05       0.218   8.354e-05      -4.078
	H_dH              1.110e-05       0.029   1.110e-05      -4.954

H_de          
	  6.378e-05  moles
	                                   Mole                     Log
	Species               Moles    Fraction    Molality    Molality

	H_deH-            4.574e-05       0.717   4.574e-05      -4.340
	H_de-2            1.336e-05       0.209   1.336e-05      -4.874
	H_deCa            2.928e-06       0.046   2.928e-06      -5.533
	H_deH2            1.757e-06       0.028   1.757e-06      -5.755

H_dg          
	  6.378e-05  moles
	                                   Mole                     Log
	Species               Moles    Fraction    Molality    Molality

	H_dgH-            5.785e-05       0.907   5.785e-05      -4.238
	H_dgCa            3.704e-06       0.058   3.704e-06      -5.431
	H_dgH2            2.222e-06       0.035   2.222e-06      -5.653
	H_dg-2            3.530e-09       0.000   3.530e-09      -8.452

H_e           
	  1.919e-04  moles
	                                   Mole                     Log
	Species               Moles    Fraction    Molality    Molality

	H_eH              1.484e-04       0.773   1.484e-04      -3.829
	H_e-              4.334e-05       0.226   4.334e-05      -4.363
	H_eCa+            1.810e-07       0.001   1.810e-07      -6.742

H_f           
	  1.919e-04  moles
	                                   Mole                     Log
	Species               Moles    Fraction    Molality    Molality

	H_fH              1.909e-04       0.995   1.909e-04      -3.719
	H_f-              8.057e-07       0.004   8.057e-07      -6.094
	H_fCa+            2.329e-07       0.001   2.329e-07      -6.633

H_g           
	  1.919e-04  moles
	                                   Mole                     Log
	Species               Moles    Fraction    Molality    Molality

	H_gH              1.917e-04       0.999   1.917e-04      -3.717
	H_gCa+            2.338e-07       0.001   2.338e-07      -6.631
	H_g-              1.169e-08       0.000   1.169e-08      -7.932

H_h           
	  1.919e-04  moles
	                                   Mole                     Log
	Species               Moles    Fraction    Molality    Molality

	H_hH              1.917e-04       0.999   1.917e-04      -3.717
	H_hCa+            2.338e-07       0.001   2.338e-07      -6.631
	H_h-              1.690e-10       0.000   1.690e-10      -9.772

Hfo           
	  4.014e-07  Surface charge, eq
	  1.374e-02  sigma, C/m²
	  4.247e-02  psi, V
	 -1.659e+00  -F*psi/RT
	  1.904e-01  exp(-F*psi/RT)
	  1.068e+04  specific area, m²/mol redoxFe(OH)3(a)
	  2.818e+00  m² for   2.639e-04 moles of redoxFe(OH)3(a)


Hfo_s         
	  1.319e-06  moles	[0.005 mol/(mol redoxFe(OH)3(a))]
	                                   Mole                     Log
	Species               Moles    Fraction    Molality    Molality

	Hfo_sOH           5.671e-07       0.430   5.671e-07      -6.246
	Hfo_sOHCa+2       5.068e-07       0.384   5.068e-07      -6.295
	Hfo_sOH2+         2.105e-07       0.160   2.105e-07      -6.677
	Hfo_sO-           3.499e-08       0.027   3.499e-08      -7.456

Hfo_w         
	  5.278e-05  moles	[0.2 mol/(mol redoxFe(OH)3(a))]
	                                   Mole                     Log
	Species               Moles    Fraction    Molality    Molality

	Hfo_wOH           3.224e-05       0.611   3.224e-05      -4.492
	Hfo_wOH2+         1.197e-05       0.227   1.197e-05      -4.922
	Hfo_wOHSulfateO4-2   5.144e-06       0.097   5.144e-06      -5.289
	Hfo_wO-           1.989e-06       0.038   1.989e-06      -5.701
	Hfo_wSulfateO4-   9.575e-07       0.018   9.575e-07      -6.019
	Hfo_wOMg+         4.549e-07       0.009   4.549e-07      -6.342
	Hfo_wOCa+         2.290e-08       0.000   2.290e-08      -7.640

-----------------------------------------
Beginning of batch-reaction calculations.
-----------------------------------------

Reaction step 1.

Using solution 1.	
Using surface 1.	
Using pure phase assemblage 1.	
Using reaction 1.	

Reaction 1.	

	  1.000e+00 moles of the following reaction have been added:

	                 Relative
	Reactant            moles

	K2SulfateO4          0.00010

	                 Relative
	Element             moles
	K                    0.00020
	O                    0.00040
	Sulfate              0.00010

-------------------------------Phase assemblage--------------------------------

                                                      Moles in assemblage
Phase               SI  log IAP  log K(T, P)   Initial       Final       Delta

redoxFe(OH)3(a)   -0.00     4.89      4.89    2.639e-04   8.743e-04   6.104e-04

------------------------------Surface composition------------------------------

Diffuse Double Layer Surface-Complexation Model

H             
	 -2.326e-03  Surface charge, eq
	 -1.216e-02  sigma, C/m²
	 -3.837e-02  psi, V
	  1.498e+00  -F*psi/RT
	  4.475e+00  exp(-F*psi/RT)
	  3.417e+04  specific area, m²/g
	  1.845e+04  m² for   5.400e-01 g


H_a           
	  3.837e-04  moles
	                                   Mole                     Log
	Species               Moles    Fraction    Molality    Molality

	H_a-              3.836e-04       1.000   3.836e-04      -3.416
	H_aCa+            5.006e-08       0.000   5.006e-08      -7.301
	H_aH              9.261e-09       0.000   9.261e-09      -8.033

H_ab          
	  6.378e-05  moles
	                                   Mole                     Log
	Species               Moles    Fraction    Molality    Molality

	H_ab-2            6.376e-05       1.000   6.376e-05      -4.195
	H_abH-            1.983e-08       0.000   1.983e-08      -7.703
	H_abCa            2.631e-09       0.000   2.631e-09      -8.580
	H_abH2            4.786e-13       0.000   4.786e-13     -12.320

H_ad          
	  6.378e-05  moles
	                                   Mole                     Log
	Species               Moles    Fraction    Molality    Molality

	H_ad-2            6.018e-05       0.944   6.018e-05      -4.221
	H_adH-            3.178e-06       0.050   3.178e-06      -5.498
	H_adCa            4.217e-07       0.007   4.217e-07      -6.375
	H_adH2            7.671e-11       0.000   7.671e-11     -10.115

H_af          
	  6.378e-05  moles
	                                   Mole                     Log
	Species               Moles    Fraction    Molality    Molality

	H_afH-            6.284e-05       0.985   6.284e-05      -4.202
	H_afCa            7.432e-07       0.012   7.432e-07      -6.129
	H_af-2            1.930e-07       0.003   1.930e-07      -6.714
	H_afH2            1.517e-09       0.000   1.517e-09      -8.819

H_ah          
	  6.378e-05  moles
	                                   Mole                     Log
	Species               Moles    Fraction    Molality    Molality

	H_ahH-            6.378e-05       1.000   6.378e-05      -4.195
	H_ahH2            1.539e-09       0.000   1.539e-09      -8.813
	H_ahCa            1.341e-09       0.000   1.341e-09      -8.872
	H_ah-2            4.092e-11       0.000   4.092e-11     -10.388

H_b           
	  3.837e-04  moles
	                                   Mole                     Log
	Species               Moles    Fraction    Molality    Molality

	H_b-              3.829e-04       0.998   3.829e-04      -3.417
	H_bCa+            6.437e-07       0.002   6.437e-07      -6.191
	H_bH              1.191e-07       0.000   1.191e-07      -6.924

H_bc          
	  6.378e-05  moles
	                                   Mole                     Log
	Species               Moles    Fraction    Molality    Molality

	H_bc-2            6.308e-05       0.989   6.308e-05      -4.200
	H_bcCa            4.420e-07       0.007   4.420e-07      -6.355
	H_bcH-            2.586e-07       0.004   2.586e-07      -6.587
	H_bcH2            8.041e-11       0.000   8.041e-11     -10.095

H_be          
	  6.378e-05  moles
	                                   Mole                     Log
	Species               Moles    Fraction    Molality    Molality

	H_beH-            5.258e-05       0.824   5.258e-05      -4.279
	H_be-2            1.117e-05       0.175   1.117e-05      -4.952
	H_beH2            1.635e-08       0.000   1.635e-08      -7.786
	H_beCa            1.424e-08       0.000   1.424e-08      -7.846

H_bg          
	  6.378e-05  moles
	                                   Mole                     Log
	Species               Moles    Fraction    Molality    Molality

	H_bgH-            6.374e-05       0.999   6.374e-05      -4.196
	H_bgH2            1.982e-08       0.000   1.982e-08      -7.703
	H_bgCa            1.727e-08       0.000   1.727e-08      -7.763
	H_bg-2            2.829e-09       0.000   2.829e-09      -8.548

H_c           
	  3.837e-04  moles
	                                   Mole                     Log
	Species               Moles    Fraction    Molality    Molality

	H_c-              3.739e-04       0.974   3.739e-04      -3.427
	H_cCa+            8.285e-06       0.022   8.285e-06      -5.082
	H_cH              1.533e-06       0.004   1.533e-06      -5.815

H_cd          
	  6.378e-05  moles
	                                   Mole                     Log
	Species               Moles    Fraction    Molality    Molality

	H_cdCa            3.384e-05       0.531   3.384e-05      -4.471
	H_cd-2            2.843e-05       0.446   2.843e-05      -4.546
	H_cdH-            1.502e-06       0.024   1.502e-06      -5.823
	H_cdH2            6.156e-09       0.000   6.156e-09      -8.211

H_cf          
	  6.378e-05  moles
	                                   Mole                     Log
	Species               Moles    Fraction    Molality    Molality

	H_cfH-            6.310e-05       0.989   6.310e-05      -4.200
	H_cfH2            2.587e-07       0.004   2.587e-07      -6.587
	H_cfCa            2.254e-07       0.004   2.254e-07      -6.647
	H_cf-2            1.938e-07       0.003   1.938e-07      -6.713

H_ch          
	  6.378e-05  moles
	                                   Mole                     Log
	Species               Moles    Fraction    Molality    Molality

	H_chH-            6.329e-05       0.992   6.329e-05      -4.199
	H_chH2            2.595e-07       0.004   2.595e-07      -6.586
	H_chCa            2.260e-07       0.004   2.260e-07      -6.646
	H_ch-2            4.061e-11       0.000   4.061e-11     -10.391

H_d           
	  3.837e-04  moles
	                                   Mole                     Log
	Species               Moles    Fraction    Molality    Molality

	H_d-              2.867e-04       0.747   2.867e-04      -3.543
	H_dCa+            8.185e-05       0.213   8.185e-05      -4.087
	H_dH              1.514e-05       0.039   1.514e-05      -4.820

H_de          
	  6.378e-05  moles
	                                   Mole                     Log
	Species               Moles    Fraction    Molality    Molality

	H_deH-            4.864e-05       0.763   4.864e-05      -4.313
	H_de-2            1.033e-05       0.162   1.033e-05      -4.986
	H_deH2            2.569e-06       0.040   2.569e-06      -5.590
	H_deCa            2.238e-06       0.035   2.238e-06      -5.650

H_dg          
	  6.378e-05  moles
	                                   Mole                     Log
	Species               Moles    Fraction    Molality    Molality

	H_dgH-            5.804e-05       0.910   5.804e-05      -4.236
	H_dgH2            3.065e-06       0.048   3.065e-06      -5.514
	H_dgCa            2.670e-06       0.042   2.670e-06      -5.573
	H_dg-2            2.577e-09       0.000   2.577e-09      -8.589

H_e           
	  1.919e-04  moles
	                                   Mole                     Log
	Species               Moles    Fraction    Molality    Molality

	H_eH              1.582e-04       0.824   1.582e-04      -3.801
	H_e-              3.360e-05       0.175   3.360e-05      -4.474
	H_eCa+            1.387e-07       0.001   1.387e-07      -6.858

H_f           
	  1.919e-04  moles
	                                   Mole                     Log
	Species               Moles    Fraction    Molality    Molality

	H_fH              1.911e-04       0.996   1.911e-04      -3.719
	H_f-              5.870e-07       0.003   5.870e-07      -6.231
	H_fCa+            1.676e-07       0.001   1.676e-07      -6.776

H_g           
	  1.919e-04  moles
	                                   Mole                     Log
	Species               Moles    Fraction    Molality    Molality

	H_gH              1.917e-04       0.999   1.917e-04      -3.717
	H_gCa+            1.681e-07       0.001   1.681e-07      -6.774
	H_g-              8.511e-09       0.000   8.511e-09      -8.070

H_h           
	  1.919e-04  moles
	                                   Mole                     Log
	Species               Moles    Fraction    Molality    Molality

	H_hH              1.917e-04       0.999   1.917e-04      -3.717
	H_hCa+            1.681e-07       0.001   1.681e-07      -6.774
	H_h-              1.230e-10       0.000   1.230e-10      -9.910

Hfo           
	  1.424e-06  Surface charge, eq
	  1.471e-02  sigma, C/m²
	  4.491e-02  psi, V
	 -1.754e+00  -F*psi/RT
	  1.731e-01  exp(-F*psi/RT)
	  1.068e+04  specific area, m²/mol redoxFe(OH)3(a)
	  9.337e+00  m² for   8.743e-04 moles of redoxFe(OH)3(a)


Hfo_s         
	  4.371e-06  moles	[0.005 mol/(mol redoxFe(OH)3(a))]
	                                   Mole                     Log
	Species               Moles    Fraction    Molality    Molality

	Hfo_sOH           1.935e-06       0.443   1.935e-06      -5.713
	Hfo_sOHCa+2       1.436e-06       0.329   1.436e-06      -5.843
	Hfo_sOH2+         9.055e-07       0.207   9.055e-07      -6.043
	Hfo_sO-           9.470e-08       0.022   9.470e-08      -7.024

Hfo_w         
	  1.749e-04  moles	[0.2 mol/(mol redoxFe(OH)3(a))]
	                                   Mole                     Log
	Species               Moles    Fraction    Molality    Molality

	Hfo_wOH           9.844e-05       0.563   9.844e-05      -4.007
	Hfo_wOH2+         4.607e-05       0.263   4.607e-05      -4.337
	Hfo_wOHSulfateO4-2   1.990e-05       0.114   1.990e-05      -4.701
	Hfo_wO-           4.818e-06       0.028   4.818e-06      -5.317
	Hfo_wSulfateO4-   4.670e-06       0.027   4.670e-06      -5.331
	Hfo_wOMg+         9.068e-07       0.005   9.068e-07      -6.042
	Hfo_wOCa+         4.609e-08       0.000   4.609e-08      -7.336

-----------------------------Solution composition------------------------------

	Elements           Molality       Moles

	Al                1.001e-05   1.001e-05
	Br                4.123e-06   4.123e-06
	C                 4.473e-03   4.473e-03
	Ca                4.941e-04   4.941e-04
	Cl                1.731e-03   1.731e-03
	Ferric            4.244e-08   4.244e-08
	K                 1.501e-03   1.501e-03
	Mg                5.499e-04   5.499e-04
	Na                1.013e-02   1.013e-02
	Nitrate           4.924e-03   4.924e-03
	Sulfate           1.783e-03   1.783e-03

----------------------------Description of solution----------------------------

                                       pH  =   6.858      Charge balance
                                       pe  =  -6.330      Adjusted to redox equilibrium
      Specific Conductance (µS/cm,  24°C)  = 1417
                        Activity of water  =   1.000
                 Ionic strength (mol/kgw)  =   1.591e-02
                       Mass of water (kg)  =   1.000e+00
                 Total alkalinity (eq/kg)  =   3.547e-03
                       Total CO2 (mol/kg)  =   4.473e-03
                         Temperature (°C)  =  24.00
                  Electrical balance (eq)  =  -1.807e-05
 Percent error, 100*(Cat-|An|)/(Cat+|An|)  =  -0.07
                               Iterations  =  18
                                  Total H  = 1.110157e+02
                                  Total O  = 5.554043e+01

----------------------------Distribution of species----------------------------

                                               Log       Log       Log    mole V
   Species          Molality    Activity  Molality  Activity     Gamma   cm³/mol

   H+              1.544e-07   1.387e-07    -6.811    -6.858    -0.047      0.00
   OH-             7.611e-08   6.688e-08    -7.119    -7.175    -0.056     (0)  
   H2O             5.551e+01   9.996e-01     1.744    -0.000     0.000     18.06
Al            1.001e-05
   Al(OH)4-        8.752e-06   7.718e-06    -5.058    -5.112    -0.055     (0)  
   Al(OH)2+        6.618e-07   5.836e-07    -6.179    -6.234    -0.055     (0)  
   Al(OH)3         5.736e-07   5.757e-07    -6.241    -6.240     0.002     (0)  
   AlOH+2          1.865e-08   1.128e-08    -7.729    -7.948    -0.218     (0)  
   AlSulfateO4+    5.846e-10   5.155e-10    -9.233    -9.288    -0.055     (0)  
   Al+3            4.432e-10   1.681e-10    -9.353    -9.774    -0.421     (0)  
   Al(SulfateO4)2-   1.808e-11   1.594e-11   -10.743   -10.797    -0.055     (0)  
   AlHSulfateO4+2   1.039e-17   6.283e-18   -16.983   -17.202    -0.218     (0)  
Br            4.123e-06
   Br-             4.123e-06   3.615e-06    -5.385    -5.442    -0.057     (0)  
C(4)          4.473e-03
   HCO3-           3.466e-03   3.071e-03    -2.460    -2.513    -0.052     (0)  
   CO2             9.664e-04   9.700e-04    -3.015    -3.013     0.002     (0)  
   NaHCO3          1.530e-05   1.536e-05    -4.815    -4.814     0.002     (0)  
   MgHCO3+         1.192e-05   1.051e-05    -4.924    -4.978    -0.055     (0)  
   CaHCO3+         1.156e-05   1.024e-05    -4.937    -4.990    -0.052     (0)  
   CO3-2           1.650e-06   1.018e-06    -5.782    -5.992    -0.210     (0)  
   CaCO3           4.433e-07   4.450e-07    -6.353    -6.352     0.002     (0)  
   MgCO3           2.799e-07   2.809e-07    -6.553    -6.551     0.002     (0)  
   NaCO3-          1.817e-07   1.602e-07    -6.741    -6.795    -0.055     (0)  
Ca            4.941e-04
   Ca+2            4.307e-04   2.655e-04    -3.366    -3.576    -0.210     (0)  
   CaSulfateO4     5.137e-05   5.156e-05    -4.289    -4.288     0.002     (0)  
   CaHCO3+         1.156e-05   1.024e-05    -4.937    -4.990    -0.052     (0)  
   CaCO3           4.433e-07   4.450e-07    -6.353    -6.352     0.002     (0)  
   CaOH+           3.601e-10   3.176e-10    -9.444    -9.498    -0.055     (0)  
   CaHSulfateO4+   4.691e-11   4.136e-11   -10.329   -10.383    -0.055     (0)  
Cl            1.731e-03
   Cl-             1.731e-03   1.522e-03    -2.762    -2.817    -0.056     (0)  
   FerricCl+2      1.529e-17   9.248e-18   -16.816   -17.034    -0.218     (0)  
   FerricCl2+      7.362e-20   6.492e-20   -19.133   -19.188    -0.055     (0)  
   FerricCl3       9.847e-24   9.883e-24   -23.007   -23.005     0.002     (0)  
Ferric        4.244e-08
   Ferric(OH)2+    2.374e-08   2.094e-08    -7.624    -7.679    -0.055     (0)  
   Ferric(OH)3     1.855e-08   1.861e-08    -7.732    -7.730     0.002     (0)  
   Ferric(OH)4-    1.333e-10   1.175e-10    -9.875    -9.930    -0.055     (0)  
   FerricOH+2      1.507e-11   9.112e-12   -10.822   -11.040    -0.218     (0)  
   FerricSulfateO4+   2.481e-15   2.188e-15   -14.605   -14.660    -0.055     (0)  
   Ferric+3        5.476e-16   2.077e-16   -15.262   -15.683    -0.421     (0)  
   Ferric(SulfateO4)2-   5.313e-17   4.685e-17   -16.275   -16.329    -0.055     (0)  
   FerricCl+2      1.529e-17   9.248e-18   -16.816   -17.034    -0.218     (0)  
   FerricCl2+      7.362e-20   6.492e-20   -19.133   -19.188    -0.055     (0)  
   Ferric2(OH)2+4   1.741e-20   2.329e-21   -19.759   -20.633    -0.874     (0)  
   FerricHSulfateO4+2   1.344e-21   8.128e-22   -20.872   -21.090    -0.218     (0)  
   FerricCl3       9.847e-24   9.883e-24   -23.007   -23.005     0.002     (0)  
   Ferric3(OH)4+5   2.590e-25   1.118e-26   -24.587   -25.952    -1.365     (0)  
H(0)          1.251e-04
   H2              6.257e-05   6.280e-05    -4.204    -4.202     0.002     (0)  
K             1.501e-03
   K+              1.491e-03   1.311e-03    -2.827    -2.882    -0.056     (0)  
   KSulfateO4-     1.008e-05   8.893e-06    -4.996    -5.051    -0.055     (0)  
   KOH             3.265e-11   3.277e-11   -10.486   -10.485     0.002     (0)  
Mg            5.499e-04
   Mg+2            4.721e-04   2.937e-04    -3.326    -3.532    -0.206     (0)  
   MgSulfateO4     6.569e-05   6.593e-05    -4.183    -4.181     0.002     (0)  
   MgHCO3+         1.192e-05   1.051e-05    -4.924    -4.978    -0.055     (0)  
   MgCO3           2.799e-07   2.809e-07    -6.553    -6.551     0.002     (0)  
   MgOH+           7.963e-09   7.022e-09    -8.099    -8.154    -0.055     (0)  
Na            1.013e-02
   Na+             1.007e-02   8.895e-03    -1.997    -2.051    -0.054     (0)  
   NaSulfateO4-    4.935e-05   4.352e-05    -4.307    -4.361    -0.055     (0)  
   NaHCO3          1.530e-05   1.536e-05    -4.815    -4.814     0.002     (0)  
   NaCO3-          1.817e-07   1.602e-07    -6.741    -6.795    -0.055     (0)  
   NaOH            4.221e-10   4.236e-10    -9.375    -9.373     0.002     (0)  
Nitrate       4.924e-03
   NitrateO3-      4.924e-03   4.342e-03    -2.308    -2.362    -0.055     (0)  
O(0)          0.000e+00
   O2              0.000e+00   0.000e+00   -84.302   -84.300     0.002     (0)  
Sulfate       1.783e-03
   SulfateO4-2     1.606e-03   9.826e-04    -2.794    -3.008    -0.213     (0)  
   MgSulfateO4     6.569e-05   6.593e-05    -4.183    -4.181     0.002     (0)  
   CaSulfateO4     5.137e-05   5.156e-05    -4.289    -4.288     0.002     (0)  
   NaSulfateO4-    4.935e-05   4.352e-05    -4.307    -4.361    -0.055     (0)  
   KSulfateO4-     1.008e-05   8.893e-06    -4.996    -5.051    -0.055     (0)  
   HSulfateO4-     1.470e-08   1.296e-08    -7.833    -7.887    -0.055     (0)  
   AlSulfateO4+    5.846e-10   5.155e-10    -9.233    -9.288    -0.055     (0)  
   CaHSulfateO4+   4.691e-11   4.136e-11   -10.329   -10.383    -0.055     (0)  
   Al(SulfateO4)2-   1.808e-11   1.594e-11   -10.743   -10.797    -0.055     (0)  
   FerricSulfateO4+   2.481e-15   2.188e-15   -14.605   -14.660    -0.055     (0)  
   Ferric(SulfateO4)2-   5.313e-17   4.685e-17   -16.275   -16.329    -0.055     (0)  
   AlHSulfateO4+2   1.039e-17   6.283e-18   -16.983   -17.202    -0.218     (0)  
   FerricHSulfateO4+2   1.344e-21   8.128e-22   -20.872   -21.090    -0.218     (0)  

------------------------------Saturation indices-------------------------------

  Phase               SI** log IAP   log K(297 K,   1 atm)

  Al(OH)3(a)       -0.07     10.80   10.87  Al(OH)3
  FixpH            -6.86     -6.86    0.00  H+
  Gibbsite          2.63     10.80    8.17  Al(OH)3
  H2(g)            -1.06     -4.20   -3.15  H2
  H2O(g)           -1.54     -0.00    1.54  H2O
  Halite           -6.45     -4.87    1.58  NaCl
  redoxAlunite      4.20      2.93   -1.28  KAl3(SulfateO4)2(OH)6
  redoxAnhydrite   -2.23     -6.58   -4.36  CaSulfateO4
  redoxAragonite   -1.24     -9.57   -8.33  CaCO3
  redoxCalcite     -1.09     -9.57   -8.47  CaCO3
  redoxCO2(g)      -1.56     -3.01   -1.46  CO2
  redoxDolomite    -2.03    -19.09  -17.07  CaMg(CO3)2
  redoxFe(OH)3(a)  -0.00      4.89    4.89  Ferric(OH)3
  redoxGoethite     5.86      4.89   -0.96  FerricOOH
  redoxGypsum      -2.00     -6.58   -4.58  CaSulfateO4:2H2O
  redoxHematite    13.71      9.78   -3.93  Ferric2O3
  redoxJarosite-K  -5.67    -14.80   -9.13  KFerric3(SulfateO4)2(OH)6

**For a gas, SI = log10(fugacity). Fugacity = pressure * phi / 1 atm.
  For ideal gases, phi = 1.

Reaction step 2.

Using solution 1.	
Using surface 1.	
Using pure phase assemblage 1.	
Using reaction 1.	

Reaction 1.	

	  2.000e+00 moles of the following reaction have been added:

	                 Relative
	Reactant            moles

	K2SulfateO4          0.00010

	                 Relative
	Element             moles
	K                    0.00020
	O                    0.00040
	Sulfate              0.00010

-------------------------------Phase assemblage--------------------------------

                                                      Moles in assemblage
Phase               SI  log IAP  log K(T, P)   Initial       Final       Delta

redoxFe(OH)3(a)   -0.00     4.89      4.89    2.639e-04   8.743e-04   6.104e-04

------------------------------Surface composition------------------------------

Diffuse Double Layer Surface-Complexation Model

H             
	 -2.330e-03  Surface charge, eq
	 -1.218e-02  sigma, C/m²
	 -3.815e-02  psi, V
	  1.490e+00  -F*psi/RT
	  4.437e+00  exp(-F*psi/RT)
	  3.417e+04  specific area, m²/g
	  1.845e+04  m² for   5.400e-01 g


H_a           
	  3.837e-04  moles
	                                   Mole                     Log
	Species               Moles    Fraction    Molality    Molality

	H_a-              3.836e-04       1.000   3.836e-04      -3.416
	H_aCa+            4.900e-08       0.000   4.900e-08      -7.310
	H_aH              9.187e-09       0.000   9.187e-09      -8.037

H_ab          
	  6.378e-05  moles
	                                   Mole                     Log
	Species               Moles    Fraction    Molality    Molality

	H_ab-2            6.376e-05       1.000   6.376e-05      -4.195
	H_abH-            1.967e-08       0.000   1.967e-08      -7.706
	H_abCa            2.575e-09       0.000   2.575e-09      -8.589
	H_abH2            4.710e-13       0.000   4.710e-13     -12.327

H_ad          
	  6.378e-05  moles
	                                   Mole                     Log
	Species               Moles    Fraction    Molality    Molality

	H_ad-2            6.021e-05       0.944   6.021e-05      -4.220
	H_adH-            3.155e-06       0.049   3.155e-06      -5.501
	H_adCa            4.130e-07       0.006   4.130e-07      -6.384
	H_adH2            7.554e-11       0.000   7.554e-11     -10.122

H_af          
	  6.378e-05  moles
	                                   Mole                     Log
	Species               Moles    Fraction    Molality    Molality

	H_afH-            6.285e-05       0.985   6.285e-05      -4.202
	H_afCa            7.334e-07       0.011   7.334e-07      -6.135
	H_af-2            1.946e-07       0.003   1.946e-07      -6.711
	H_afH2            1.505e-09       0.000   1.505e-09      -8.822

H_ah          
	  6.378e-05  moles
	                                   Mole                     Log
	Species               Moles    Fraction    Molality    Molality

	H_ahH-            6.378e-05       1.000   6.378e-05      -4.195
	H_ahH2            1.527e-09       0.000   1.527e-09      -8.816
	H_ahCa            1.323e-09       0.000   1.323e-09      -8.878
	H_ah-2            4.125e-11       0.000   4.125e-11     -10.385

H_b           
	  3.837e-04  moles
	                                   Mole                     Log
	Species               Moles    Fraction    Molality    Molality

	H_b-              3.830e-04       0.998   3.830e-04      -3.417
	H_bCa+            6.301e-07       0.002   6.302e-07      -6.201
	H_bH              1.181e-07       0.000   1.181e-07      -6.928

H_bc          
	  6.378e-05  moles
	                                   Mole                     Log
	Species               Moles    Fraction    Molality    Molality

	H_bc-2            6.309e-05       0.989   6.309e-05      -4.200
	H_bcCa            4.328e-07       0.007   4.328e-07      -6.364
	H_bcH-            2.566e-07       0.004   2.566e-07      -6.591
	H_bcH2            7.915e-11       0.000   7.916e-11     -10.102

H_be          
	  6.378e-05  moles
	                                   Mole                     Log
	Species               Moles    Fraction    Molality    Molality

	H_beH-            5.251e-05       0.823   5.251e-05      -4.280
	H_be-2            1.124e-05       0.176   1.124e-05      -4.949
	H_beH2            1.620e-08       0.000   1.620e-08      -7.791
	H_beCa            1.404e-08       0.000   1.404e-08      -7.853

H_bg          
	  6.378e-05  moles
	                                   Mole                     Log
	Species               Moles    Fraction    Molality    Molality

	H_bgH-            6.374e-05       0.999   6.374e-05      -4.196
	H_bgH2            1.966e-08       0.000   1.966e-08      -7.706
	H_bgCa            1.704e-08       0.000   1.704e-08      -7.769
	H_bg-2            2.852e-09       0.000   2.852e-09      -8.545

H_c           
	  3.837e-04  moles
	                                   Mole                     Log
	Species               Moles    Fraction    Molality    Molality

	H_c-              3.741e-04       0.975   3.741e-04      -3.427
	H_cCa+            8.114e-06       0.021   8.114e-06      -5.091
	H_cH              1.521e-06       0.004   1.521e-06      -5.818

H_cd          
	  6.378e-05  moles
	                                   Mole                     Log
	Species               Moles    Fraction    Molality    Molality

	H_cdCa            3.351e-05       0.525   3.351e-05      -4.475
	H_cd-2            2.876e-05       0.451   2.876e-05      -4.541
	H_cdH-            1.507e-06       0.024   1.507e-06      -5.822
	H_cdH2            6.128e-09       0.000   6.128e-09      -8.213

H_cf          
	  6.378e-05  moles
	                                   Mole                     Log
	Species               Moles    Fraction    Molality    Molality

	H_cfH-            6.311e-05       0.989   6.311e-05      -4.200
	H_cfH2            2.566e-07       0.004   2.566e-07      -6.591
	H_cfCa            2.224e-07       0.003   2.224e-07      -6.653
	H_cf-2            1.953e-07       0.003   1.953e-07      -6.709

H_ch          
	  6.378e-05  moles
	                                   Mole                     Log
	Species               Moles    Fraction    Molality    Molality

	H_chH-            6.330e-05       0.992   6.330e-05      -4.199
	H_chH2            2.574e-07       0.004   2.574e-07      -6.589
	H_chCa            2.231e-07       0.003   2.231e-07      -6.652
	H_ch-2            4.094e-11       0.000   4.094e-11     -10.388

H_d           
	  3.837e-04  moles
	                                   Mole                     Log
	Species               Moles    Fraction    Molality    Molality

	H_d-              2.881e-04       0.751   2.881e-04      -3.540
	H_dCa+            8.051e-05       0.210   8.051e-05      -4.094
	H_dH              1.509e-05       0.039   1.509e-05      -4.821

H_de          
	  6.378e-05  moles
	                                   Mole                     Log
	Species               Moles    Fraction    Molality    Molality

	H_deH-            4.861e-05       0.762   4.861e-05      -4.313
	H_de-2            1.041e-05       0.163   1.041e-05      -4.982
	H_deH2            2.547e-06       0.040   2.547e-06      -5.594
	H_deCa            2.207e-06       0.035   2.207e-06      -5.656

H_dg          
	  6.378e-05  moles
	                                   Mole                     Log
	Species               Moles    Fraction    Molality    Molality

	H_dgH-            5.810e-05       0.911   5.810e-05      -4.236
	H_dgH2            3.044e-06       0.048   3.044e-06      -5.517
	H_dgCa            2.637e-06       0.041   2.637e-06      -5.579
	H_dg-2            2.600e-09       0.000   2.600e-09      -8.585

H_e           
	  1.919e-04  moles
	                                   Mole                     Log
	Species               Moles    Fraction    Molality    Molality

	H_eH              1.579e-04       0.823   1.579e-04      -3.802
	H_e-              3.382e-05       0.176   3.382e-05      -4.471
	H_eCa+            1.366e-07       0.001   1.366e-07      -6.864

H_f           
	  1.919e-04  moles
	                                   Mole                     Log
	Species               Moles    Fraction    Molality    Molality

	H_fH              1.911e-04       0.996   1.911e-04      -3.719
	H_f-              5.917e-07       0.003   5.917e-07      -6.228
	H_fCa+            1.653e-07       0.001   1.653e-07      -6.782

H_g           
	  1.919e-04  moles
	                                   Mole                     Log
	Species               Moles    Fraction    Molality    Molality

	H_gH              1.917e-04       0.999   1.917e-04      -3.717
	H_gCa+            1.659e-07       0.001   1.659e-07      -6.780
	H_g-              8.579e-09       0.000   8.579e-09      -8.067

H_h           
	  1.919e-04  moles
	                                   Mole                     Log
	Species               Moles    Fraction    Molality    Molality

	H_hH              1.917e-04       0.999   1.917e-04      -3.717
	H_hCa+            1.659e-07       0.001   1.659e-07      -6.780
	H_h-              1.240e-10       0.000   1.240e-10      -9.907

Hfo           
	  1.420e-06  Surface charge, eq
	  1.467e-02  sigma, C/m²
	  4.449e-02  psi, V
	 -1.738e+00  -F*psi/RT
	  1.759e-01  exp(-F*psi/RT)
	  1.068e+04  specific area, m²/mol redoxFe(OH)3(a)
	  9.337e+00  m² for   8.743e-04 moles of redoxFe(OH)3(a)


Hfo_s         
	  4.371e-06  moles	[0.005 mol/(mol redoxFe(OH)3(a))]
	                                   Mole                     Log
	Species               Moles    Fraction    Molality    Molality

	Hfo_sOH           1.911e-06       0.437   1.911e-06      -5.719
	Hfo_sOHCa+2       1.459e-06       0.334   1.459e-06      -5.836
	Hfo_sOH2+         9.094e-07       0.208   9.094e-07      -6.041
	Hfo_sO-           9.201e-08       0.021   9.201e-08      -7.036

Hfo_w         
	  1.749e-04  moles	[0.2 mol/(mol redoxFe(OH)3(a))]
	                                   Mole                     Log
	Species               Moles    Fraction    Molality    Molality

	Hfo_wOH           9.775e-05       0.559   9.775e-05      -4.010
	Hfo_wOH2+         4.651e-05       0.266   4.651e-05      -4.332
	Hfo_wOHSulfateO4-2   2.014e-05       0.115   2.014e-05      -4.696
	Hfo_wSulfateO4-   4.804e-06       0.027   4.804e-06      -5.318
	Hfo_wO-           4.706e-06       0.027   4.706e-06      -5.327
	Hfo_wOMg+         9.064e-07       0.005   9.064e-07      -6.043
	Hfo_wOCa+         4.628e-08       0.000   4.628e-08      -7.335

-----------------------------Solution composition------------------------------

	Elements           Molality       Moles

	Al                1.001e-05   1.001e-05
	Br                4.123e-06   4.123e-06
	C                 4.473e-03   4.473e-03
	Ca                4.960e-04   4.960e-04
	Cl                1.731e-03   1.731e-03
	Ferric            4.247e-08   4.247e-08
	K                 1.701e-03   1.701e-03
	Mg                5.499e-04   5.499e-04
	Na                1.013e-02   1.013e-02
	Nitrate           4.924e-03   4.924e-03
	Sulfate           1.882e-03   1.882e-03

----------------------------Description of solution----------------------------

                                       pH  =   6.858      Charge balance
                                       pe  =  -6.330      Adjusted to redox equilibrium
      Specific Conductance (µS/cm,  24°C)  = 1441
                        Activity of water  =   1.000
                 Ionic strength (mol/kgw)  =   1.618e-02
                       Mass of water (kg)  =   1.000e+00
                 Total alkalinity (eq/kg)  =   3.548e-03
                       Total CO2 (mol/kg)  =   4.473e-03
                         Temperature (°C)  =  24.00
                  Electrical balance (eq)  =  -1.373e-05
 Percent error, 100*(Cat-|An|)/(Cat+|An|)  =  -0.05
                               Iterations  =  18
                                  Total H  = 1.110157e+02
                                  Total O  = 5.554082e+01

----------------------------Distribution of species----------------------------

                                               Log       Log       Log    mole V
   Species          Molality    Activity  Molality  Activity     Gamma   cm³/mol

   H+              1.546e-07   1.387e-07    -6.811    -6.858    -0.047      0.00
   OH-             7.614e-08   6.685e-08    -7.118    -7.175    -0.057     (0)  
   H2O             5.551e+01   9.996e-01     1.744    -0.000     0.000     18.06
Al            1.001e-05
   Al(OH)4-        8.752e-06   7.711e-06    -5.058    -5.113    -0.055     (0)  
   Al(OH)2+        6.624e-07   5.836e-07    -6.179    -6.234    -0.055     (0)  
   Al(OH)3         5.733e-07   5.754e-07    -6.242    -6.240     0.002     (0)  
   AlOH+2          1.872e-08   1.128e-08    -7.728    -7.948    -0.220     (0)  
   AlSulfateO4+    6.163e-10   5.430e-10    -9.210    -9.265    -0.055     (0)  
   Al+3            4.463e-10   1.683e-10    -9.350    -9.774    -0.424     (0)  
   Al(SulfateO4)2-   2.006e-11   1.767e-11   -10.698   -10.753    -0.055     (0)  
   AlHSulfateO4+2   1.099e-17   6.621e-18   -16.959   -17.179    -0.220     (0)  
Br            4.123e-06
   Br-             4.123e-06   3.611e-06    -5.385    -5.442    -0.058     (0)  
C(4)          4.473e-03
   HCO3-           3.466e-03   3.069e-03    -2.460    -2.513    -0.053     (0)  
   CO2             9.661e-04   9.697e-04    -3.015    -3.013     0.002     (0)  
   NaHCO3          1.528e-05   1.533e-05    -4.816    -4.814     0.002     (0)  
   MgHCO3+         1.181e-05   1.041e-05    -4.928    -4.983    -0.055     (0)  
   CaHCO3+         1.151e-05   1.019e-05    -4.939    -4.992    -0.053     (0)  
   CO3-2           1.654e-06   1.016e-06    -5.781    -5.993    -0.211     (0)  
   CaCO3           4.408e-07   4.425e-07    -6.356    -6.354     0.002     (0)  
   MgCO3           2.770e-07   2.781e-07    -6.557    -6.556     0.002     (0)  
   NaCO3-          1.814e-07   1.599e-07    -6.741    -6.796    -0.055     (0)  
Ca            4.960e-04
   Ca+2            4.303e-04   2.643e-04    -3.366    -3.578    -0.212     (0)  
   CaSulfateO4     5.381e-05   5.401e-05    -4.269    -4.268     0.002     (0)  
   CaHCO3+         1.151e-05   1.019e-05    -4.939    -4.992    -0.053     (0)  
   CaCO3           4.408e-07   4.425e-07    -6.356    -6.354     0.002     (0)  
   CaOH+           3.587e-10   3.160e-10    -9.445    -9.500    -0.055     (0)  
   CaHSulfateO4+   4.921e-11   4.336e-11   -10.308   -10.363    -0.055     (0)  
Cl            1.731e-03
   Cl-             1.731e-03   1.521e-03    -2.762    -2.818    -0.056     (0)  
   FerricCl+2      1.536e-17   9.253e-18   -16.814   -17.034    -0.220     (0)  
   FerricCl2+      7.365e-20   6.489e-20   -19.133   -19.188    -0.055     (0)  
   FerricCl3       9.833e-24   9.869e-24   -23.007   -23.006     0.002     (0)  
Ferric        4.247e-08
   Ferric(OH)2+    2.378e-08   2.095e-08    -7.624    -7.679    -0.055     (0)  
   Ferric(OH)3     1.854e-08   1.861e-08    -7.732    -7.730     0.002     (0)  
   Ferric(OH)4-    1.333e-10   1.175e-10    -9.875    -9.930    -0.055     (0)  
   FerricOH+2      1.513e-11   9.121e-12   -10.820   -11.040    -0.220     (0)  
   FerricSulfateO4+   2.617e-15   2.306e-15   -14.582   -14.637    -0.055     (0)  
   Ferric+3        5.517e-16   2.080e-16   -15.258   -15.682    -0.424     (0)  
   Ferric(SulfateO4)2-   5.897e-17   5.196e-17   -16.229   -16.284    -0.055     (0)  
   FerricCl+2      1.536e-17   9.253e-18   -16.814   -17.034    -0.220     (0)  
   FerricCl2+      7.365e-20   6.489e-20   -19.133   -19.188    -0.055     (0)  
   Ferric2(OH)2+4   1.770e-20   2.334e-21   -19.752   -20.632    -0.880     (0)  
   FerricHSulfateO4+2   1.422e-21   8.570e-22   -20.847   -21.067    -0.220     (0)  
   FerricCl3       9.833e-24   9.869e-24   -23.007   -23.006     0.002     (0)  
   Ferric3(OH)4+5   2.656e-25   1.120e-26   -24.576   -25.951    -1.375     (0)  
H(0)          1.251e-04
   H2              6.257e-05   6.280e-05    -4.204    -4.202     0.002     (0)  
K             1.701e-03
   K+              1.689e-03   1.484e-03    -2.772    -2.829    -0.056     (0)  
   KSulfateO4-     1.202e-05   1.059e-05    -4.920    -4.975    -0.055     (0)  
   KOH             3.693e-11   3.707e-11   -10.433   -10.431     0.002     (0)  
Mg            5.499e-04
   Mg+2            4.694e-04   2.911e-04    -3.329    -3.536    -0.207     (0)  
   MgSulfateO4     6.850e-05   6.876e-05    -4.164    -4.163     0.002     (0)  
   MgHCO3+         1.181e-05   1.041e-05    -4.928    -4.983    -0.055     (0)  
   MgCO3           2.770e-07   2.781e-07    -6.557    -6.556     0.002     (0)  
   MgOH+           7.895e-09   6.956e-09    -8.103    -8.158    -0.055     (0)  
Na            1.013e-02
   Na+             1.007e-02   8.884e-03    -1.997    -2.051    -0.054     (0)  
   NaSulfateO4-    5.192e-05   4.575e-05    -4.285    -4.340    -0.055     (0)  
   NaHCO3          1.528e-05   1.533e-05    -4.816    -4.814     0.002     (0)  
   NaCO3-          1.814e-07   1.599e-07    -6.741    -6.796    -0.055     (0)  
   NaOH            4.214e-10   4.230e-10    -9.375    -9.374     0.002     (0)  
Nitrate       4.924e-03
   NitrateO3-      4.924e-03   4.338e-03    -2.308    -2.363    -0.055     (0)  
O(0)          0.000e+00
   O2              0.000e+00   0.000e+00   -84.302   -84.300     0.002     (0)  
Sulfate       1.882e-03
   SulfateO4-2     1.696e-03   1.034e-03    -2.771    -2.986    -0.215     (0)  
   MgSulfateO4     6.850e-05   6.876e-05    -4.164    -4.163     0.002     (0)  
   CaSulfateO4     5.381e-05   5.401e-05    -4.269    -4.268     0.002     (0)  
   NaSulfateO4-    5.192e-05   4.575e-05    -4.285    -4.340    -0.055     (0)  
   KSulfateO4-     1.202e-05   1.059e-05    -4.920    -4.975    -0.055     (0)  
   HSulfateO4-     1.549e-08   1.364e-08    -7.810    -7.865    -0.055     (0)  
   AlSulfateO4+    6.163e-10   5.430e-10    -9.210    -9.265    -0.055     (0)  
   CaHSulfateO4+   4.921e-11   4.336e-11   -10.308   -10.363    -0.055     (0)  
   Al(SulfateO4)2-   2.006e-11   1.767e-11   -10.698   -10.753    -0.055     (0)  
   FerricSulfateO4+   2.617e-15   2.306e-15   -14.582   -14.637    -0.055     (0)  
   Ferric(SulfateO4)2-   5.897e-17   5.196e-17   -16.229   -16.284    -0.055     (0)  
   AlHSulfateO4+2   1.099e-17   6.621e-18   -16.959   -17.179    -0.220     (0)  
   FerricHSulfateO4+2   1.422e-21   8.570e-22   -20.847   -21.067    -0.220     (0)  

------------------------------Saturation indices-------------------------------

  Phase               SI** log IAP   log K(297 K,   1 atm)

  Al(OH)3(a)       -0.07     10.80   10.87  Al(OH)3
  FixpH            -6.86     -6.86    0.00  H+
  Gibbsite          2.63     10.80    8.17  Al(OH)3
  H2(g)            -1.06     -4.20   -3.15  H2
  H2O(g)           -1.54     -0.00    1.54  H2O
  Halite           -6.45     -4.87    1.58  NaCl
  redoxAlunite      4.30      3.02   -1.28  KAl3(SulfateO4)2(OH)6
  redoxAnhydrite   -2.21     -6.56   -4.36  CaSulfateO4
  redoxAragonite   -1.24     -9.57   -8.33  CaCO3
  redoxCalcite     -1.10     -9.57   -8.47  CaCO3
  redoxCO2(g)      -1.56     -3.01   -1.46  CO2
  redoxDolomite    -2.03    -19.10  -17.07  CaMg(CO3)2
  redoxFe(OH)3(a)  -0.00      4.89    4.89  Ferric(OH)3
  redoxGoethite     5.86      4.89   -0.96  FerricOOH
  redoxGypsum      -1.98     -6.56   -4.58  CaSulfateO4:2H2O
  redoxHematite    13.71      9.78   -3.93  Ferric2O3
  redoxJarosite-K  -5.57    -14.70   -9.13  KFerric3(SulfateO4)2(OH)6

**For a gas, SI = log10(fugacity). Fugacity = pressure * phi / 1 atm.
  For ideal gases, phi = 1.

Reaction step 3.

Using solution 1.	
Using surface 1.	
Using pure phase assemblage 1.	
Using reaction 1.	

Reaction 1.	

	  3.000e+00 moles of the following reaction have been added:

	                 Relative
	Reactant            moles

	K2SulfateO4          0.00010

	                 Relative
	Element             moles
	K                    0.00020
	O                    0.00040
	Sulfate              0.00010

-------------------------------Phase assemblage--------------------------------

                                                      Moles in assemblage
Phase               SI  log IAP  log K(T, P)   Initial       Final       Delta

redoxFe(OH)3(a)    0.00     4.89      4.89    2.639e-04   8.743e-04   6.104e-04

------------------------------Surface composition------------------------------

Diffuse Double Layer Surface-Complexation Model

H             
	 -2.334e-03  Surface charge, eq
	 -1.221e-02  sigma, C/m²
	 -3.794e-02  psi, V
	  1.482e+00  -F*psi/RT
	  4.401e+00  exp(-F*psi/RT)
	  3.417e+04  specific area, m²/g
	  1.845e+04  m² for   5.400e-01 g


H_a           
	  3.837e-04  moles
	                                   Mole                     Log
	Species               Moles    Fraction    Molality    Molality

	H_a-              3.836e-04       1.000   3.836e-04      -3.416
	H_aCa+            4.799e-08       0.000   4.799e-08      -7.319
	H_aH              9.116e-09       0.000   9.116e-09      -8.040

H_ab          
	  6.378e-05  moles
	                                   Mole                     Log
	Species               Moles    Fraction    Molality    Molality

	H_ab-2            6.376e-05       1.000   6.376e-05      -4.195
	H_abH-            1.952e-08       0.000   1.952e-08      -7.710
	H_abCa            2.522e-09       0.000   2.522e-09      -8.598
	H_abH2            4.638e-13       0.000   4.638e-13     -12.334

H_ad          
	  6.378e-05  moles
	                                   Mole                     Log
	Species               Moles    Fraction    Molality    Molality

	H_ad-2            6.024e-05       0.945   6.024e-05      -4.220
	H_adH-            3.132e-06       0.049   3.132e-06      -5.504
	H_adCa            4.047e-07       0.006   4.047e-07      -6.393
	H_adH2            7.442e-11       0.000   7.442e-11     -10.128

H_af          
	  6.378e-05  moles
	                                   Mole                     Log
	Species               Moles    Fraction    Molality    Molality

	H_afH-            6.286e-05       0.986   6.286e-05      -4.202
	H_afCa            7.239e-07       0.011   7.239e-07      -6.140
	H_af-2            1.961e-07       0.003   1.961e-07      -6.708
	H_afH2            1.494e-09       0.000   1.494e-09      -8.826

H_ah          
	  6.378e-05  moles
	                                   Mole                     Log
	Species               Moles    Fraction    Molality    Molality

	H_ahH-            6.378e-05       1.000   6.378e-05      -4.195
	H_ahH2            1.515e-09       0.000   1.515e-09      -8.819
	H_ahCa            1.306e-09       0.000   1.306e-09      -8.884
	H_ah-2            4.157e-11       0.000   4.157e-11     -10.381

H_b           
	  3.837e-04  moles
	                                   Mole                     Log
	Species               Moles    Fraction    Molality    Molality

	H_b-              3.830e-04       0.998   3.830e-04      -3.417
	H_bCa+            6.171e-07       0.002   6.171e-07      -6.210
	H_bH              1.172e-07       0.000   1.172e-07      -6.931

H_bc          
	  6.378e-05  moles
	                                   Mole                     Log
	Species               Moles    Fraction    Molality    Molality

	H_bc-2            6.310e-05       0.989   6.310e-05      -4.200
	H_bcCa            4.239e-07       0.007   4.239e-07      -6.373
	H_bcH-            2.546e-07       0.004   2.546e-07      -6.594
	H_bcH2            7.795e-11       0.000   7.795e-11     -10.108

H_be          
	  6.378e-05  moles
	                                   Mole                     Log
	Species               Moles    Fraction    Molality    Molality

	H_beH-            5.243e-05       0.822   5.243e-05      -4.280
	H_be-2            1.132e-05       0.177   1.132e-05      -4.946
	H_beH2            1.605e-08       0.000   1.605e-08      -7.795
	H_beCa            1.383e-08       0.000   1.383e-08      -7.859

H_bg          
	  6.378e-05  moles
	                                   Mole                     Log
	Species               Moles    Fraction    Molality    Molality

	H_bgH-            6.374e-05       0.999   6.374e-05      -4.196
	H_bgH2            1.951e-08       0.000   1.951e-08      -7.710
	H_bgCa            1.682e-08       0.000   1.682e-08      -7.774
	H_bg-2            2.874e-09       0.000   2.874e-09      -8.541

H_c           
	  3.837e-04  moles
	                                   Mole                     Log
	Species               Moles    Fraction    Molality    Molality

	H_c-              3.742e-04       0.975   3.742e-04      -3.427
	H_cCa+            7.949e-06       0.021   7.949e-06      -5.100
	H_cH              1.510e-06       0.004   1.510e-06      -5.821

H_cd          
	  6.378e-05  moles
	                                   Mole                     Log
	Species               Moles    Fraction    Molality    Molality

	H_cdCa            3.318e-05       0.520   3.318e-05      -4.479
	H_cd-2            2.908e-05       0.456   2.908e-05      -4.536
	H_cdH-            1.512e-06       0.024   1.512e-06      -5.820
	H_cdH2            6.101e-09       0.000   6.101e-09      -8.215

H_cf          
	  6.378e-05  moles
	                                   Mole                     Log
	Species               Moles    Fraction    Molality    Molality

	H_cfH-            6.311e-05       0.989   6.311e-05      -4.200
	H_cfH2            2.547e-07       0.004   2.547e-07      -6.594
	H_cfCa            2.195e-07       0.003   2.195e-07      -6.659
	H_cf-2            1.969e-07       0.003   1.969e-07      -6.706

H_ch          
	  6.378e-05  moles
	                                   Mole                     Log
	Species               Moles    Fraction    Molality    Molality

	H_chH-            6.330e-05       0.993   6.330e-05      -4.199
	H_chH2            2.555e-07       0.004   2.555e-07      -6.593
	H_chCa            2.202e-07       0.003   2.202e-07      -6.657
	H_ch-2            4.126e-11       0.000   4.126e-11     -10.384

H_d           
	  3.837e-04  moles
	                                   Mole                     Log
	Species               Moles    Fraction    Molality    Molality

	H_d-              2.894e-04       0.754   2.894e-04      -3.538
	H_dCa+            7.921e-05       0.206   7.921e-05      -4.101
	H_dH              1.505e-05       0.039   1.505e-05      -4.823

H_de          
	  6.378e-05  moles
	                                   Mole                     Log
	Species               Moles    Fraction    Molality    Molality

	H_deH-            4.859e-05       0.762   4.859e-05      -4.313
	H_de-2            1.049e-05       0.164   1.049e-05      -4.979
	H_deH2            2.526e-06       0.040   2.526e-06      -5.598
	H_deCa            2.177e-06       0.034   2.177e-06      -5.662

H_dg          
	  6.378e-05  moles
	                                   Mole                     Log
	Species               Moles    Fraction    Molality    Molality

	H_dgH-            5.815e-05       0.912   5.815e-05      -4.235
	H_dgH2            3.023e-06       0.047   3.023e-06      -5.520
	H_dgCa            2.605e-06       0.041   2.605e-06      -5.584
	H_dg-2            2.622e-09       0.000   2.622e-09      -8.581

H_e           
	  1.919e-04  moles
	                                   Mole                     Log
	Species               Moles    Fraction    Molality    Molality

	H_eH              1.577e-04       0.822   1.577e-04      -3.802
	H_e-              3.404e-05       0.177   3.404e-05      -4.468
	H_eCa+            1.346e-07       0.001   1.347e-07      -6.871

H_f           
	  1.919e-04  moles
	                                   Mole                     Log
	Species               Moles    Fraction    Molality    Molality

	H_fH              1.911e-04       0.996   1.911e-04      -3.719
	H_f-              5.963e-07       0.003   5.963e-07      -6.225
	H_fCa+            1.632e-07       0.001   1.632e-07      -6.787

H_g           
	  1.919e-04  moles
	                                   Mole                     Log
	Species               Moles    Fraction    Molality    Molality

	H_gH              1.917e-04       0.999   1.917e-04      -3.717
	H_gCa+            1.637e-07       0.001   1.637e-07      -6.786
	H_g-              8.646e-09       0.000   8.646e-09      -8.063

H_h           
	  1.919e-04  moles
	                                   Mole                     Log
	Species               Moles    Fraction    Molality    Molality

	H_hH              1.917e-04       0.999   1.917e-04      -3.717
	H_hCa+            1.637e-07       0.001   1.637e-07      -6.786
	H_h-              1.250e-10       0.000   1.250e-10      -9.903

Hfo           
	  1.416e-06  Surface charge, eq
	  1.463e-02  sigma, C/m²
	  4.410e-02  psi, V
	 -1.723e+00  -F*psi/RT
	  1.786e-01  exp(-F*psi/RT)
	  1.068e+04  specific area, m²/mol redoxFe(OH)3(a)
	  9.337e+00  m² for   8.743e-04 moles of redoxFe(OH)3(a)


Hfo_s         
	  4.371e-06  moles	[0.005 mol/(mol redoxFe(OH)3(a))]
	                                   Mole                     Log
	Species               Moles    Fraction    Molality    Molality

	Hfo_sOH           1.889e-06       0.432   1.889e-06      -5.724
	Hfo_sOHCa+2       1.480e-06       0.339   1.480e-06      -5.830
	Hfo_sOH2+         9.131e-07       0.209   9.131e-07      -6.039
	Hfo_sO-           8.952e-08       0.020   8.952e-08      -7.048

Hfo_w         
	  1.749e-04  moles	[0.2 mol/(mol redoxFe(OH)3(a))]
	                                   Mole                     Log
	Species               Moles    Fraction    Molality    Molality

	Hfo_wOH           9.708e-05       0.555   9.708e-05      -4.013
	Hfo_wOH2+         4.693e-05       0.268   4.693e-05      -4.329
	Hfo_wOHSulfateO4-2   2.036e-05       0.116   2.036e-05      -4.691
	Hfo_wSulfateO4-   4.934e-06       0.028   4.934e-06      -5.307
	Hfo_wO-           4.601e-06       0.026   4.601e-06      -5.337
	Hfo_wOMg+         9.056e-07       0.005   9.056e-07      -6.043
	Hfo_wOCa+         4.644e-08       0.000   4.644e-08      -7.333

-----------------------------Solution composition------------------------------

	Elements           Molality       Moles

	Al                1.001e-05   1.001e-05
	Br                4.123e-06   4.123e-06
	C                 4.473e-03   4.473e-03
	Ca                4.979e-04   4.979e-04
	Cl                1.731e-03   1.731e-03
	Ferric            4.250e-08   4.250e-08
	K                 1.901e-03   1.901e-03
	Mg                5.499e-04   5.499e-04
	Na                1.013e-02   1.013e-02
	Nitrate           4.924e-03   4.924e-03
	Sulfate           1.982e-03   1.982e-03

----------------------------Description of solution----------------------------

                                       pH  =   6.858      Charge balance
                                       pe  =  -6.329      Adjusted to redox equilibrium
      Specific Conductance (µS/cm,  24°C)  = 1464
                        Activity of water  =   1.000
                 Ionic strength (mol/kgw)  =   1.646e-02
                       Mass of water (kg)  =   1.000e+00
                 Total alkalinity (eq/kg)  =   3.548e-03
                       Total CO2 (mol/kg)  =   4.473e-03
                         Temperature (°C)  =  24.00
                  Electrical balance (eq)  =  -9.488e-06
 Percent error, 100*(Cat-|An|)/(Cat+|An|)  =  -0.03
                               Iterations  =  18
                                  Total H  = 1.110157e+02
                                  Total O  = 5.554122e+01

----------------------------Distribution of species----------------------------

                                               Log       Log       Log    mole V
   Species          Molality    Activity  Molality  Activity     Gamma   cm³/mol

   H+              1.548e-07   1.388e-07    -6.810    -6.858    -0.047      0.00
   OH-             7.617e-08   6.682e-08    -7.118    -7.175    -0.057     (0)  
   H2O             5.551e+01   9.996e-01     1.744    -0.000     0.000     18.06
Al            1.001e-05
   Al(OH)4-        8.751e-06   7.704e-06    -5.058    -5.113    -0.055     (0)  
   Al(OH)2+        6.631e-07   5.837e-07    -6.178    -6.234    -0.055     (0)  
   Al(OH)3         5.730e-07   5.752e-07    -6.242    -6.240     0.002     (0)  
   AlOH+2          1.880e-08   1.129e-08    -7.726    -7.947    -0.222     (0)  
   AlSulfateO4+    6.480e-10   5.704e-10    -9.188    -9.244    -0.055     (0)  
   Al+3            4.495e-10   1.684e-10    -9.347    -9.774    -0.426     (0)  
   Al(SulfateO4)2-   2.213e-11   1.948e-11   -10.655   -10.710    -0.055     (0)  
   AlHSulfateO4+2   1.159e-17   6.959e-18   -16.936   -17.157    -0.222     (0)  
Br            4.123e-06
   Br-             4.123e-06   3.608e-06    -5.385    -5.443    -0.058     (0)  
C(4)          4.473e-03
   HCO3-           3.466e-03   3.067e-03    -2.460    -2.513    -0.053     (0)  
   CO2             9.659e-04   9.695e-04    -3.015    -3.013     0.002     (0)  
   NaHCO3          1.525e-05   1.530e-05    -4.817    -4.815     0.002     (0)  
   MgHCO3+         1.171e-05   1.031e-05    -4.931    -4.987    -0.055     (0)  
   CaHCO3+         1.146e-05   1.014e-05    -4.941    -4.994    -0.053     (0)  
   CO3-2           1.657e-06   1.015e-06    -5.781    -5.993    -0.213     (0)  
   CaCO3           4.383e-07   4.400e-07    -6.358    -6.357     0.002     (0)  
   MgCO3           2.742e-07   2.753e-07    -6.562    -6.560     0.002     (0)  
   NaCO3-          1.812e-07   1.595e-07    -6.742    -6.797    -0.055     (0)  
Ca            4.979e-04
   Ca+2            4.298e-04   2.631e-04    -3.367    -3.580    -0.213     (0)  
   CaSulfateO4     5.622e-05   5.643e-05    -4.250    -4.248     0.002     (0)  
   CaHCO3+         1.146e-05   1.014e-05    -4.941    -4.994    -0.053     (0)  
   CaCO3           4.383e-07   4.400e-07    -6.358    -6.357     0.002     (0)  
   CaOH+           3.573e-10   3.145e-10    -9.447    -9.502    -0.055     (0)  
   CaHSulfateO4+   5.148e-11   4.532e-11   -10.288   -10.344    -0.055     (0)  
Cl            1.731e-03
   Cl-             1.731e-03   1.519e-03    -2.762    -2.818    -0.057     (0)  
   FerricCl+2      1.542e-17   9.259e-18   -16.812   -17.033    -0.222     (0)  
   FerricCl2+      7.369e-20   6.487e-20   -19.133   -19.188    -0.055     (0)  
[...]

**For a gas, SI = log10(fugacity). Fugacity = pressure * phi / 1 atm.
  For ideal gases, phi = 1.

Reaction step 40.

Using solution 1.	
Using surface 1.	
Using pure phase assemblage 1.	
Using reaction 1.	

Reaction 1.	

	  4.000e+01 moles of the following reaction have been added:

	                 Relative
	Reactant            moles

	K2SulfateO4          0.00010

	                 Relative
	Element             moles
	K                    0.00020
	O                    0.00040
	Sulfate              0.00010

-------------------------------Phase assemblage--------------------------------

                                                      Moles in assemblage
Phase               SI  log IAP  log K(T, P)   Initial       Final       Delta

redoxFe(OH)3(a)   -0.00     4.89      4.89    2.639e-04   8.743e-04   6.104e-04

------------------------------Surface composition------------------------------

Diffuse Double Layer Surface-Complexation Model

H             
	 -2.441e-03  Surface charge, eq
	 -1.276e-02  sigma, C/m²
	 -3.201e-02  psi, V
	  1.250e+00  -F*psi/RT
	  3.490e+00  exp(-F*psi/RT)
	  3.417e+04  specific area, m²/g
	  1.845e+04  m² for   5.400e-01 g


H_a           
	  3.837e-04  moles
	                                   Mole                     Log
	Species               Moles    Fraction    Molality    Molality

	H_a-              3.837e-04       1.000   3.837e-04      -3.416
	H_aCa+            2.603e-08       0.000   2.603e-08      -7.585
	H_aH              7.403e-09       0.000   7.403e-09      -8.131

H_ab          
	  6.378e-05  moles
	                                   Mole                     Log
	Species               Moles    Fraction    Molality    Molality

	H_ab-2            6.376e-05       1.000   6.376e-05      -4.195
	H_abH-            1.585e-08       0.000   1.585e-08      -7.800
	H_abCa            1.368e-09       0.000   1.368e-09      -8.864
	H_abH2            3.059e-13       0.000   3.059e-13     -12.514

H_ad          
	  6.378e-05  moles
	                                   Mole                     Log
	Species               Moles    Fraction    Molality    Molality

	H_ad-2            6.098e-05       0.956   6.098e-05      -4.215
	H_adH-            2.574e-06       0.040   2.574e-06      -5.589
	H_adCa            2.222e-07       0.003   2.222e-07      -6.653
	H_adH2            4.968e-11       0.000   4.968e-11     -10.304

H_af          
	  6.378e-05  moles
	                                   Mole                     Log
	Species               Moles    Fraction    Molality    Molality

	H_afH-            6.305e-05       0.989   6.305e-05      -4.200
	H_afCa            4.850e-07       0.008   4.850e-07      -6.314
	H_af-2            2.422e-07       0.004   2.422e-07      -6.616
	H_afH2            1.217e-09       0.000   1.217e-09      -8.915

H_ah          
	  6.378e-05  moles
	                                   Mole                     Log
	Species               Moles    Fraction    Molality    Molality

	H_ahH-            6.378e-05       1.000   6.378e-05      -4.195
	H_ahH2            1.231e-09       0.000   1.231e-09      -8.910
	H_ahCa            8.724e-10       0.000   8.724e-10      -9.059
	H_ah-2            5.119e-11       0.000   5.119e-11     -10.291

H_b           
	  3.837e-04  moles
	                                   Mole                     Log
	Species               Moles    Fraction    Molality    Molality

	H_b-              3.833e-04       0.999   3.833e-04      -3.416
	H_bCa+            3.350e-07       0.001   3.350e-07      -6.475
	H_bH              9.527e-08       0.000   9.527e-08      -7.021

H_bc          
	  6.378e-05  moles
	                                   Mole                     Log
	Species               Moles    Fraction    Molality    Molality

	H_bc-2            6.334e-05       0.993   6.334e-05      -4.198
	H_bcCa            2.308e-07       0.004   2.308e-07      -6.637
	H_bcH-            2.076e-07       0.003   2.076e-07      -6.683
	H_bcH2            5.160e-11       0.000   5.160e-11     -10.287

H_be          
	  6.378e-05  moles
	                                   Mole                     Log
	Species               Moles    Fraction    Molality    Molality

	H_beH-            5.037e-05       0.790   5.037e-05      -4.298
	H_be-2            1.339e-05       0.210   1.339e-05      -4.873
	H_beH2            1.252e-08       0.000   1.252e-08      -7.902
	H_beCa            8.876e-09       0.000   8.876e-09      -8.052

H_bg          
	  6.378e-05  moles
	                                   Mole                     Log
	Species               Moles    Fraction    Molality    Molality

	H_bgH-            6.375e-05       1.000   6.375e-05      -4.196
	H_bgH2            1.585e-08       0.000   1.585e-08      -7.800
	H_bgCa            1.123e-08       0.000   1.123e-08      -7.949
	H_bg-2            3.540e-09       0.000   3.540e-09      -8.451

H_c           
	  3.837e-04  moles
	                                   Mole                     Log
	Species               Moles    Fraction    Molality    Molality

	H_c-              3.781e-04       0.985   3.781e-04      -3.422
	H_cCa+            4.357e-06       0.011   4.357e-06      -5.361
	H_cH              1.239e-06       0.003   1.239e-06      -5.907

H_cd          
	  6.378e-05  moles
	                                   Mole                     Log
	Species               Moles    Fraction    Molality    Molality

	H_cd-2            3.840e-05       0.602   3.840e-05      -4.416
	H_cdCa            2.376e-05       0.373   2.376e-05      -4.624
	H_cdH-            1.621e-06       0.025   1.621e-06      -5.790
	H_cdH2            5.312e-09       0.000   5.312e-09      -8.275

H_cf          
	  6.378e-05  moles
	                                   Mole                     Log
	Species               Moles    Fraction    Molality    Molality

	H_cfH-            6.318e-05       0.991   6.318e-05      -4.199
	H_cf-2            2.427e-07       0.004   2.427e-07      -6.615
	H_cfH2            2.070e-07       0.003   2.071e-07      -6.684
	H_cfCa            1.468e-07       0.002   1.468e-07      -6.833

H_ch          
	  6.378e-05  moles
	                                   Mole                     Log
	Species               Moles    Fraction    Molality    Molality

	H_chH-            6.342e-05       0.994   6.342e-05      -4.198
	H_chH2            2.078e-07       0.003   2.078e-07      -6.682
	H_chCa            1.473e-07       0.002   1.473e-07      -6.832
	H_ch-2            5.091e-11       0.000   5.091e-11     -10.293

H_d           
	  3.837e-04  moles
	                                   Mole                     Log
	Species               Moles    Fraction    Molality    Molality

	H_d-              3.223e-04       0.840   3.223e-04      -3.492
	H_dCa+            4.783e-05       0.125   4.783e-05      -4.320
	H_dH              1.360e-05       0.035   1.360e-05      -4.866

H_de          
	  6.378e-05  moles
	                                   Mole                     Log
	Species               Moles    Fraction    Molality    Molality

	H_deH-            4.767e-05       0.747   4.767e-05      -4.322
	H_de-2            1.267e-05       0.199   1.267e-05      -4.897
	H_deH2            2.012e-06       0.032   2.012e-06      -5.696
	H_deCa            1.427e-06       0.022   1.427e-06      -5.846

H_dg          
	  6.378e-05  moles
	                                   Mole                     Log
	Species               Moles    Fraction    Molality    Molality

	H_dgH-            5.949e-05       0.933   5.949e-05      -4.226
	H_dgH2            2.511e-06       0.039   2.511e-06      -5.600
	H_dgCa            1.780e-06       0.028   1.780e-06      -5.750
	H_dg-2            3.303e-09       0.000   3.303e-09      -8.481

H_e           
	  1.919e-04  moles
	                                   Mole                     Log
	Species               Moles    Fraction    Molality    Molality

	H_eH              1.515e-04       0.790   1.515e-04      -3.819
	H_e-              4.028e-05       0.210   4.028e-05      -4.395
	H_eCa+            8.641e-08       0.000   8.641e-08      -7.063

H_f           
	  1.919e-04  moles
	                                   Mole                     Log
	Species               Moles    Fraction    Molality    Molality

	H_fH              1.911e-04       0.996   1.911e-04      -3.719
	H_f-              7.340e-07       0.004   7.340e-07      -6.134
	H_fCa+            1.089e-07       0.001   1.089e-07      -6.963

H_g           
	  1.919e-04  moles
	                                   Mole                     Log
	Species               Moles    Fraction    Molality    Molality

	H_gH              1.918e-04       0.999   1.918e-04      -3.717
	H_gCa+            1.094e-07       0.001   1.094e-07      -6.961
	H_g-              1.065e-08       0.000   1.065e-08      -7.973

H_h           
	  1.919e-04  moles
	                                   Mole                     Log
	Species               Moles    Fraction    Molality    Molality

	H_hH              1.918e-04       0.999   1.918e-04      -3.717
	H_hCa+            1.094e-07       0.001   1.094e-07      -6.961
	H_h-              1.539e-10       0.000   1.539e-10      -9.813

Hfo           
	  1.428e-06  Surface charge, eq
	  1.476e-02  sigma, C/m²
	  3.634e-02  psi, V
	 -1.419e+00  -F*psi/RT
	  2.419e-01  exp(-F*psi/RT)
	  1.068e+04  specific area, m²/mol redoxFe(OH)3(a)
	  9.337e+00  m² for   8.743e-04 moles of redoxFe(OH)3(a)


Hfo_s         
	  4.371e-06  moles	[0.005 mol/(mol redoxFe(OH)3(a))]
	                                   Mole                     Log
	Species               Moles    Fraction    Molality    Molality

	Hfo_sOHCa+2       1.840e-06       0.421   1.840e-06      -5.735
	Hfo_sOH           1.485e-06       0.340   1.485e-06      -5.828
	Hfo_sOH2+         9.954e-07       0.228   9.954e-07      -6.002
	Hfo_sO-           5.077e-08       0.012   5.077e-08      -7.294

Hfo_w         
	  1.749e-04  moles	[0.2 mol/(mol redoxFe(OH)3(a))]
	                                   Mole                     Log
	Species               Moles    Fraction    Molality    Molality

	Hfo_wOH           8.303e-05       0.475   8.303e-05      -4.081
	Hfo_wOH2+         5.564e-05       0.318   5.564e-05      -4.255
	Hfo_wOHSulfateO4-2   2.433e-05       0.139   2.433e-05      -4.614
	Hfo_wSulfateO4-   8.178e-06       0.047   8.178e-06      -5.087
	Hfo_wO-           2.838e-06       0.016   2.838e-06      -5.547
	Hfo_wOMg+         7.949e-07       0.005   7.949e-07      -6.100
	Hfo_wOCa+         4.529e-08       0.000   4.529e-08      -7.344

-----------------------------Solution composition------------------------------

	Elements           Molality       Moles

	Al                1.001e-05   1.001e-05
	Br                4.123e-06   4.123e-06
	C                 4.473e-03   4.473e-03
	Ca                5.448e-04   5.448e-04
	Cl                1.731e-03   1.731e-03
	Ferric            4.371e-08   4.371e-08
	K                 9.301e-03   9.301e-03
	Mg                5.501e-04   5.501e-04
	Na                1.013e-02   1.013e-02
	Nitrate           4.924e-03   4.924e-03
	Sulfate           5.675e-03   5.675e-03

----------------------------Description of solution----------------------------

                                       pH  =   6.847      Charge balance
                                       pe  =  -6.320      Adjusted to redox equilibrium
      Specific Conductance (µS/cm,  24°C)  = 2312
                        Activity of water  =   0.999
                 Ionic strength (mol/kgw)  =   2.661e-02
                       Mass of water (kg)  =   1.000e+00
                 Total alkalinity (eq/kg)  =   3.550e-03
                       Total CO2 (mol/kg)  =   4.473e-03
                         Temperature (°C)  =  24.00
                  Electrical balance (eq)  =   9.690e-05
 Percent error, 100*(Cat-|An|)/(Cat+|An|)  =   0.23
                               Iterations  =  18
                                  Total H  = 1.110157e+02
                                  Total O  = 5.555600e+01

----------------------------Distribution of species----------------------------

                                               Log       Log       Log    mole V
   Species          Molality    Activity  Molality  Activity     Gamma   cm³/mol

   H+              1.617e-07   1.421e-07    -6.791    -6.847    -0.056      0.00
   OH-             7.665e-08   6.525e-08    -7.115    -7.185    -0.070     (0)  
   H2O             5.551e+01   9.994e-01     1.744    -0.000     0.000     18.06
Al            1.001e-05
   Al(OH)4-        8.722e-06   7.469e-06    -5.059    -5.127    -0.067     (0)  
   Al(OH)2+        6.930e-07   5.934e-07    -6.159    -6.227    -0.067     (0)  
   Al(OH)3         5.676e-07   5.711e-07    -6.246    -6.243     0.003     (0)  
   AlOH+2          2.185e-08   1.175e-08    -7.660    -7.930    -0.269     (0)  
   AlSulfateO4+    1.820e-09   1.559e-09    -8.740    -8.807    -0.067     (0)  
   Al+3            5.736e-10   1.796e-10    -9.241    -9.746    -0.504     (0)  
   Al(SulfateO4)2-   1.593e-10   1.364e-10    -9.798    -9.865    -0.067     (0)  
   AlHSulfateO4+2   3.620e-17   1.947e-17   -16.441   -16.711    -0.269     (0)  
Br            4.123e-06
   Br-             4.123e-06   3.497e-06    -5.385    -5.456    -0.072     (0)  
C(4)          4.473e-03
   HCO3-           3.474e-03   2.995e-03    -2.459    -2.524    -0.064     (0)  
   CO2             9.637e-04   9.696e-04    -3.016    -3.013     0.003     (0)  
   NaHCO3          1.434e-05   1.443e-05    -4.843    -4.841     0.003     (0)  
   CaHCO3+         9.899e-06   8.535e-06    -5.004    -5.069    -0.064     (0)  
   MgHCO3+         9.122e-06   7.812e-06    -5.040    -5.107    -0.067     (0)  
   CO3-2           1.753e-06   9.684e-07    -5.756    -6.014    -0.258     (0)  
   CaCO3           3.597e-07   3.619e-07    -6.444    -6.441     0.003     (0)  
   MgCO3           2.025e-07   2.038e-07    -6.694    -6.691     0.003     (0)  
   NaCO3-          1.715e-07   1.469e-07    -6.766    -6.833    -0.067     (0)  
Ca            5.448e-04
   Ca+2            4.106e-04   2.269e-04    -3.387    -3.644    -0.258     (0)  
   CaSulfateO4     1.239e-04   1.247e-04    -3.907    -3.904     0.003     (0)  
   CaHCO3+         9.899e-06   8.535e-06    -5.004    -5.069    -0.064     (0)  
   CaCO3           3.597e-07   3.619e-07    -6.444    -6.441     0.003     (0)  
   CaOH+           3.092e-10   2.648e-10    -9.510    -9.577    -0.067     (0)  
   CaHSulfateO4+   1.197e-10   1.025e-10    -9.922    -9.989    -0.067     (0)  
Cl            1.731e-03
   Cl-             1.731e-03   1.475e-03    -2.762    -2.831    -0.070     (0)  
   FerricCl+2      1.795e-17   9.652e-18   -16.746   -17.015    -0.269     (0)  
   FerricCl2+      7.666e-20   6.565e-20   -19.115   -19.183    -0.067     (0)  
   FerricCl3       9.625e-24   9.684e-24   -23.017   -23.014     0.003     (0)  
Ferric        4.371e-08
   Ferric(OH)2+    2.506e-08   2.146e-08    -7.601    -7.668    -0.067     (0)  
   Ferric(OH)3     1.850e-08   1.861e-08    -7.733    -7.730     0.003     (0)  
   Ferric(OH)4-    1.339e-10   1.147e-10    -9.873    -9.941    -0.067     (0)  
   FerricOH+2      1.780e-11   9.574e-12   -10.750   -11.019    -0.269     (0)  
   FerricSulfateO4+   7.789e-15   6.670e-15   -14.109   -14.176    -0.067     (0)  
   Ferric+3        7.144e-16   2.237e-16   -15.146   -15.650    -0.504     (0)  
   Ferric(SulfateO4)2-   4.720e-16   4.042e-16   -15.326   -15.393    -0.067     (0)  
   FerricCl+2      1.795e-17   9.652e-18   -16.746   -17.015    -0.269     (0)  
   FerricCl2+      7.666e-20   6.565e-20   -19.115   -19.183    -0.067     (0)  
   Ferric2(OH)2+4   3.073e-20   2.571e-21   -19.512   -20.590    -1.077     (0)  
   FerricHSulfateO4+2   4.721e-21   2.539e-21   -20.326   -20.595    -0.269     (0)  
   FerricCl3       9.625e-24   9.684e-24   -23.017   -23.014     0.003     (0)  
   Ferric3(OH)4+5   6.103e-25   1.265e-26   -24.214   -25.898    -1.684     (0)  
H(0)          1.251e-04
   H2              6.257e-05   6.295e-05    -4.204    -4.201     0.003     (0)  
K             9.301e-03
   K+              9.127e-03   7.776e-03    -2.040    -2.109    -0.070     (0)  
   KSulfateO4-     1.743e-04   1.493e-04    -3.759    -3.826    -0.067     (0)  
   KOH             1.885e-10   1.896e-10    -9.725    -9.722     0.003     (0)  
Mg            5.501e-04
   Mg+2            3.994e-04   2.239e-04    -3.399    -3.650    -0.251     (0)  
   MgSulfateO4     1.414e-04   1.422e-04    -3.850    -3.847     0.003     (0)  
   MgHCO3+         9.122e-06   7.812e-06    -5.040    -5.107    -0.067     (0)  
   MgCO3           2.025e-07   2.038e-07    -6.694    -6.691     0.003     (0)  
   MgOH+           6.098e-09   5.222e-09    -8.215    -8.282    -0.067     (0)  
Na            1.013e-02
   Na+             9.982e-03   8.566e-03    -2.001    -2.067    -0.066     (0)  
   NaSulfateO4-    1.385e-04   1.186e-04    -3.858    -3.926    -0.067     (0)  
   NaHCO3          1.434e-05   1.443e-05    -4.843    -4.841     0.003     (0)  
   NaCO3-          1.715e-07   1.469e-07    -6.766    -6.833    -0.067     (0)  
   NaOH            3.956e-10   3.980e-10    -9.403    -9.400     0.003     (0)  
Nitrate       4.924e-03
   NitrateO3-      4.924e-03   4.216e-03    -2.308    -2.375    -0.067     (0)  
O(0)          0.000e+00
   O2              0.000e+00   0.000e+00   -84.305   -84.302     0.003     (0)  
Sulfate       5.675e-03
   SulfateO4-2     5.097e-03   2.781e-03    -2.293    -2.556    -0.263     (0)  
   KSulfateO4-     1.743e-04   1.493e-04    -3.759    -3.826    -0.067     (0)  
   MgSulfateO4     1.414e-04   1.422e-04    -3.850    -3.847     0.003     (0)  
   NaSulfateO4-    1.385e-04   1.186e-04    -3.858    -3.926    -0.067     (0)  
   CaSulfateO4     1.239e-04   1.247e-04    -3.907    -3.904     0.003     (0)  
   HSulfateO4-     4.390e-08   3.759e-08    -7.358    -7.425    -0.067     (0)  
   AlSulfateO4+    1.820e-09   1.559e-09    -8.740    -8.807    -0.067     (0)  
   Al(SulfateO4)2-   1.593e-10   1.364e-10    -9.798    -9.865    -0.067     (0)  
   CaHSulfateO4+   1.197e-10   1.025e-10    -9.922    -9.989    -0.067     (0)  
   FerricSulfateO4+   7.789e-15   6.670e-15   -14.109   -14.176    -0.067     (0)  
   Ferric(SulfateO4)2-   4.720e-16   4.042e-16   -15.326   -15.393    -0.067     (0)  
   AlHSulfateO4+2   3.620e-17   1.947e-17   -16.441   -16.711    -0.269     (0)  
   FerricHSulfateO4+2   4.721e-21   2.539e-21   -20.326   -20.595    -0.269     (0)  

------------------------------Saturation indices-------------------------------

  Phase               SI** log IAP   log K(297 K,   1 atm)

  Al(OH)3(a)       -0.07     10.80   10.87  Al(OH)3
  FixpH            -6.85     -6.85    0.00  H+
  Gibbsite          2.63     10.80    8.17  Al(OH)3
  H2(g)            -1.06     -4.20   -3.15  H2
  H2O(g)           -1.54     -0.00    1.54  H2O
  Halite           -6.48     -4.90    1.58  NaCl
  redoxAlunite      5.90      4.62   -1.28  KAl3(SulfateO4)2(OH)6
  redoxAnhydrite   -1.84     -6.20   -4.36  CaSulfateO4
  redoxAragonite   -1.33     -9.66   -8.33  CaCO3
  redoxCalcite     -1.18     -9.66   -8.47  CaCO3
  redoxCO2(g)      -1.56     -3.01   -1.46  CO2
  redoxDolomite    -2.26    -19.32  -17.07  CaMg(CO3)2
  redoxFe(OH)3(a)  -0.00      4.89    4.89  Ferric(OH)3
  redoxGoethite     5.86      4.89   -0.96  FerricOOH
  redoxGypsum      -1.62     -6.20   -4.58  CaSulfateO4:2H2O
  redoxHematite    13.71      9.78   -3.93  Ferric2O3
  redoxJarosite-K  -3.96    -13.09   -9.13  KFerric3(SulfateO4)2(OH)6

**For a gas, SI = log10(fugacity). Fugacity = pressure * phi / 1 atm.
  For ideal gases, phi = 1.

------------------
End of simulation.
------------------

------------------------------------
Reading input data for simulation 3.
------------------------------------

----------------------------------
End of Run after 0.079422 Seconds.
----------------------------------

