   Input file: soil_solution_example.phrq
  Output file: soil_solution_example.phrq.out
Database file: ../database/redox.dat

------------------
Reading data base.
------------------

	SOLUTION_MASTER_SPECIES
	SOLUTION_SPECIES
	PHASES
	EXCHANGE_MASTER_SPECIES
	EXCHANGE_SPECIES
	SURFACE_MASTER_SPECIES
	SURFACE_SPECIES
	RATES
	END
------------------------------------
Reading input data for simulation 1.
------------------------------------

	DATABASE ../database/redox.dat
	TITLE simulate soil solution
	CALCULATE_VALUES
	SC_T25
	start
	10 sc25 = SC/(1+0.021*(temperature-25))
	20 SAVE sc25
	end
	SOLUTION 1
	units mmol/L
	pH    7  
	temperature 	 25
	C(4)        4.47  # in equilibrium with CO2 in atmosphere, 400 pm
	Cl          1.73   
	Br          0.00412
	Nitrate        4.92
	Sulfate        1.7
	Al          0.01
	Ferric       0.61
	Na          1.7   charge
	Mg          0.55
	Ca          0.49
	K           1.3
	  SAVE SOLUTION 1
	END
-----
TITLE
-----

 simulate soil solution

-------------------------------------------
Beginning of initial solution calculations.
-------------------------------------------

Initial solution 1.	

-----------------------------Solution composition------------------------------

	Elements           Molality       Moles

	Al                1.001e-05   1.001e-05
	Br                4.123e-06   4.123e-06
	C(4)              4.473e-03   4.473e-03
	Ca                4.904e-04   4.904e-04
	Cl                1.731e-03   1.731e-03
	Ferric            6.104e-04   6.104e-04
	K                 1.301e-03   1.301e-03
	Mg                5.504e-04   5.504e-04
	Na                1.015e-02   1.015e-02  Charge balance
	Nitrate           4.924e-03   4.924e-03
	Sulfate           1.701e-03   1.701e-03

----------------------------Description of solution----------------------------

                                       pH  =   7.000    
                                       pe  =   4.000    
      Specific Conductance (µS/cm,  25°C)  = 1436
                        Activity of water  =   1.000
                 Ionic strength (mol/kgw)  =   1.593e-02
                       Mass of water (kg)  =   1.000e+00
                 Total alkalinity (eq/kg)  =   4.111e-03
                       Total CO2 (mol/kg)  =   4.473e-03
                         Temperature (°C)  =  25.00
                  Electrical balance (eq)  =   4.337e-18
 Percent error, 100*(Cat-|An|)/(Cat+|An|)  =   0.00
                               Iterations  =  10
                                  Total H  = 1.110178e+02
                                  Total O  = 5.554207e+01

----------------------------Distribution of species----------------------------

                                               Log       Log       Log    mole V
   Species          Molality    Activity  Molality  Activity     Gamma   cm³/mol

   OH-             1.139e-07   1.001e-07    -6.944    -7.000    -0.056     (0)  
   H+              1.114e-07   1.000e-07    -6.953    -7.000    -0.047      0.00
   H2O             5.551e+01   9.996e-01     1.744    -0.000     0.000     18.07
Al            1.001e-05
   Al(OH)4-        9.237e-06   8.144e-06    -5.034    -5.089    -0.055     (0)  
   Al(OH)3         4.307e-07   4.323e-07    -6.366    -6.364     0.002     (0)  
   Al(OH)2+        3.329e-07   2.935e-07    -6.478    -6.532    -0.055     (0)  
   AlOH+2          6.201e-09   3.747e-09    -8.208    -8.426    -0.219     (0)  
   AlSulfateO4+    1.267e-10   1.117e-10    -9.897    -9.952    -0.055     (0)  
   Al+3            9.968e-11   3.773e-11   -10.001   -10.423    -0.422     (0)  
   Al(SulfateO4)2-   3.751e-12   3.307e-12   -11.426   -11.481    -0.055     (0)  
   AlHSulfateO4+2   1.640e-18   9.905e-19   -17.785   -18.004    -0.219     (0)  
Br            4.123e-06
   Br-             4.123e-06   3.614e-06    -5.385    -5.442    -0.057     (0)  
C(4)          4.473e-03
   HCO3-           3.694e-03   3.273e-03    -2.432    -2.485    -0.053     (0)  
   CO2             7.335e-04   7.362e-04    -3.135    -3.133     0.002     (0)  
   NaHCO3          1.633e-05   1.639e-05    -4.787    -4.785     0.002     (0)  
   MgHCO3+         1.277e-05   1.126e-05    -4.894    -4.949    -0.055     (0)  
   CaHCO3+         1.243e-05   1.101e-05    -4.906    -4.958    -0.053     (0)  
   CO3-2           2.491e-06   1.535e-06    -5.604    -5.814    -0.210     (0)  
   CaCO3           6.773e-07   6.798e-07    -6.169    -6.168     0.002     (0)  
   MgCO3           4.290e-07   4.306e-07    -6.368    -6.366     0.002     (0)  
   NaCO3-          2.887e-07   2.546e-07    -6.540    -6.594    -0.055     (0)  
Ca            4.904e-04
   Ca+2            4.282e-04   2.636e-04    -3.368    -3.579    -0.211     (0)  
   CaSulfateO4     4.906e-05   4.925e-05    -4.309    -4.308     0.002     (0)  
   CaHCO3+         1.243e-05   1.101e-05    -4.906    -4.958    -0.053     (0)  
   CaCO3           6.773e-07   6.798e-07    -6.169    -6.168     0.002     (0)  
   CaOH+           4.961e-10   4.373e-10    -9.304    -9.359    -0.055     (0)  
   CaHSulfateO4+   3.272e-11   2.885e-11   -10.485   -10.540    -0.055     (0)  
Cl            1.731e-03
   Cl-             1.731e-03   1.522e-03    -2.762    -2.818    -0.056     (0)  
   FerricCl+2      8.943e-14   5.403e-14   -13.049   -13.267    -0.219     (0)  
   FerricCl2+      4.166e-16   3.673e-16   -15.380   -15.435    -0.055     (0)  
   FerricCl3       5.569e-20   5.590e-20   -19.254   -19.253     0.002     (0)  
Ferric        6.104e-04
   Ferric(OH)3     3.222e-04   3.233e-04    -3.492    -3.490     0.002     (0)  
   Ferric(OH)2+    2.848e-04   2.511e-04    -3.545    -3.600    -0.055     (0)  
   Ferric(OH)4-    3.343e-06   2.948e-06    -5.476    -5.531    -0.055     (0)  
   FerricOH+2      1.256e-07   7.586e-08    -6.901    -7.120    -0.219     (0)  
   FerricSulfateO4+   1.369e-11   1.207e-11   -10.864   -10.918    -0.055     (0)  
   Ferric+3        3.105e-12   1.176e-12   -11.508   -11.930    -0.422     (0)  
   Ferric2(OH)2+4   1.163e-12   1.549e-13   -11.934   -12.810    -0.875     (0)  
   Ferric(SulfateO4)2-   2.803e-13   2.471e-13   -12.552   -12.607    -0.055     (0)  
   Ferric3(OH)4+5   1.896e-13   8.127e-15   -12.722   -14.090    -1.368     (0)  
   FerricCl+2      8.943e-14   5.403e-14   -13.049   -13.267    -0.219     (0)  
   FerricCl2+      4.166e-16   3.673e-16   -15.380   -15.435    -0.055     (0)  
   FerricHSulfateO4+2   5.348e-18   3.231e-18   -17.272   -17.491    -0.219     (0)  
   FerricCl3       5.569e-20   5.590e-20   -19.254   -19.253     0.002     (0)  
H(0)          1.411e-25
   H2              7.054e-26   7.079e-26   -25.152   -25.150     0.002     (0)  
K             1.301e-03
   K+              1.292e-03   1.136e-03    -2.889    -2.945    -0.056     (0)  
   KSulfateO4-     8.477e-06   7.474e-06    -5.072    -5.126    -0.055     (0)  
   KOH             3.923e-11   3.938e-11   -10.406   -10.405     0.002     (0)  
Mg            5.504e-04
   Mg+2            4.729e-04   2.940e-04    -3.325    -3.532    -0.206     (0)  
   MgSulfateO4     6.428e-05   6.452e-05    -4.192    -4.190     0.002     (0)  
   MgHCO3+         1.277e-05   1.126e-05    -4.894    -4.949    -0.055     (0)  
   MgCO3           4.290e-07   4.306e-07    -6.368    -6.366     0.002     (0)  
   MgOH+           1.210e-08   1.067e-08    -7.917    -7.972    -0.055     (0)  
Na            1.015e-02
   Na+             1.009e-02   8.906e-03    -1.996    -2.050    -0.054     (0)  
   NaSulfateO4-    4.740e-05   4.179e-05    -4.324    -4.379    -0.055     (0)  
   NaHCO3          1.633e-05   1.639e-05    -4.787    -4.785     0.002     (0)  
   NaCO3-          2.887e-07   2.546e-07    -6.540    -6.594    -0.055     (0)  
   NaOH            5.860e-10   5.882e-10    -9.232    -9.230     0.002     (0)  
Nitrate       4.924e-03
   NitrateO3-      4.924e-03   4.341e-03    -2.308    -2.362    -0.055     (0)  
O(0)          0.000e+00
   O2              0.000e+00   0.000e+00   -42.082   -42.080     0.002     (0)  
Sulfate       1.701e-03
   SulfateO4-2     1.532e-03   9.362e-04    -2.815    -3.029    -0.214     (0)  
   MgSulfateO4     6.428e-05   6.452e-05    -4.192    -4.190     0.002     (0)  
   CaSulfateO4     4.906e-05   4.925e-05    -4.309    -4.308     0.002     (0)  
   NaSulfateO4-    4.740e-05   4.179e-05    -4.324    -4.379    -0.055     (0)  
   KSulfateO4-     8.477e-06   7.474e-06    -5.072    -5.126    -0.055     (0)  
   HSulfateO4-     1.032e-08   9.102e-09    -7.986    -8.041    -0.055     (0)  
   AlSulfateO4+    1.267e-10   1.117e-10    -9.897    -9.952    -0.055     (0)  
   CaHSulfateO4+   3.272e-11   2.885e-11   -10.485   -10.540    -0.055     (0)  
   FerricSulfateO4+   1.369e-11   1.207e-11   -10.864   -10.918    -0.055     (0)  
   Al(SulfateO4)2-   3.751e-12   3.307e-12   -11.426   -11.481    -0.055     (0)  
   Ferric(SulfateO4)2-   2.803e-13   2.471e-13   -12.552   -12.607    -0.055     (0)  
   FerricHSulfateO4+2   5.348e-18   3.231e-18   -17.272   -17.491    -0.219     (0)  
   AlHSulfateO4+2   1.640e-18   9.905e-19   -17.785   -18.004    -0.219     (0)  

------------------------------Saturation indices-------------------------------

  Phase               SI** log IAP   log K(298 K,   1 atm)

  Al(OH)3(a)       -0.22     10.58   10.80  Al(OH)3
  FixpH            -7.00     -7.00    0.00  H+
  Gibbsite          2.47     10.58    8.11  Al(OH)3
  H2(g)           -22.00    -25.15   -3.15  H2
  H2O(g)           -1.51     -0.00    1.51  H2O
  Halite           -6.45     -4.87    1.58  NaCl
  redoxAlunite      3.13      1.73   -1.40  KAl3(SulfateO4)2(OH)6
  redoxAnhydrite   -2.25     -6.61   -4.36  CaSulfateO4
  redoxAragonite   -1.06     -9.39   -8.34  CaCO3
  redoxCalcite     -0.91     -9.39   -8.48  CaCO3
  redoxCO2(g)      -1.67     -3.13   -1.47  CO2
  redoxDolomite    -1.65    -18.74  -17.09  CaMg(CO3)2
  redoxFe(OH)3(a)   4.18      9.07    4.89  Ferric(OH)3
  redoxGoethite    10.07      9.07   -1.00  FerricOOH
  redoxGypsum      -2.03     -6.61   -4.58  CaSulfateO4:2H2O
  redoxHematite    22.15     18.14   -4.01  Ferric2O3
  redoxJarosite-K   6.42     -2.79   -9.21  KFerric3(SulfateO4)2(OH)6

**For a gas, SI = log10(fugacity). Fugacity = pressure * phi / 1 atm.
  For ideal gases, phi = 1.

------------------
End of simulation.
------------------

------------------------------------
Reading input data for simulation 2.
------------------------------------

	USE SOLUTION 1
	EQUILIBRIUM_PHASES 1
	  redoxFe(OH)3(a) 0.0 2.63879401E-04
	SURFACE 1
	Hfo_w redoxFe(OH)3(a) 0.2 1.068E4
	Hfo_s redoxFe(OH)3(a) 0.005 1.068E4
	  H_a   3.837E-04  3.417E+04      0.25  ##gram of SOM for exchange
	  H_b   3.837E-04
	 H_c   3.837E-04
	 H_d  3.837E-04
	  H_e   1.919E-04
	 H_f   1.919E-04
	 H_g  1.919E-04
	 H_h  1.919E-04
	  H_ab  6.378E-05
	 H_ad  6.378E-05
	 H_af  6.378E-05
	 H_ah  6.378E-05
	  H_bc  6.378E-05
	 H_be  6.378E-05
	 H_bg  6.378E-05
	 H_cd  6.378E-05
	  H_cf  6.378E-05
	 H_ch  6.378E-05
	 H_de  6.378E-05
	 H_dg  6.378E-05
	  equilibrate 1
	REACTION 1
	K2SulfateO4  0.001  #each step 0.001 mol
	 40 in 40 steps
	SAVE SOLUTION 1
	SELECTED_OUTPUT
	reset false
	file soil_solution1.txt
	USER_PUNCH
	start
	heading pH Na  K  Ca  Mg  NO3  Cl  SO4 HCO3 sc
	10 PUNCH -la("H+")
	20 PUNCH tot("Na")  tot("K")  tot("Ca")  tot("Mg") tot("Nitrate")  tot("Cl")  tot("Sulfate") tot("C(4)")
	30 PUNCH CALC_VALUE ("SC_T25")
	end
	END
WARNING: Suggest using master species formula in SURFACE 
	 for surface related to equilibrium_phase: H_aH.
WARNING: Suggest using master species formula in SURFACE 
	 for surface related to equilibrium_phase: H_abH2.
WARNING: Suggest using master species formula in SURFACE 
	 for surface related to equilibrium_phase: H_adH2.
WARNING: Suggest using master species formula in SURFACE 
	 for surface related to equilibrium_phase: H_afH2.
WARNING: Suggest using master species formula in SURFACE 
	 for surface related to equilibrium_phase: H_ahH2.
WARNING: Suggest using master species formula in SURFACE 
	 for surface related to equilibrium_phase: H_bH.
WARNING: Suggest using master species formula in SURFACE 
	 for surface related to equilibrium_phase: H_bcH2.
WARNING: Suggest using master species formula in SURFACE 
	 for surface related to equilibrium_phase: H_beH2.
WARNING: Suggest using master species formula in SURFACE 
	 for surface related to equilibrium_phase: H_bgH2.
WARNING: Suggest using master species formula in SURFACE 
	 for surface related to equilibrium_phase: H_cH.
WARNING: Suggest using master species formula in SURFACE 
	 for surface related to equilibrium_phase: H_cdH2.
WARNING: Suggest using master species formula in SURFACE 
	 for surface related to equilibrium_phase: H_cfH2.
WARNING: Suggest using master species formula in SURFACE 
	 for surface related to equilibrium_phase: H_chH2.
WARNING: Suggest using master species formula in SURFACE 
	 for surface related to equilibrium_phase: H_dH.
WARNING: Suggest using master species formula in SURFACE 
	 for surface related to equilibrium_phase: H_deH2.
WARNING: Suggest using master species formula in SURFACE 
	 for surface related to equilibrium_phase: H_dgH2.
WARNING: Suggest using master species formula in SURFACE 
	 for surface related to equilibrium_phase: H_eH.
WARNING: Suggest using master species formula in SURFACE 
	 for surface related to equilibrium_phase: H_fH.
WARNING: Suggest using master species formula in SURFACE 
	 for surface related to equilibrium_phase: H_gH.
WARNING: Suggest using master species formula in SURFACE 
	 for surface related to equilibrium_phase: H_hH.
WARNING: Suggest using master species formula in SURFACE 
	 for surface related to equilibrium_phase: Hfo_sOH.
WARNING: Suggest using master species formula in SURFACE 
	 for surface related to equilibrium_phase: Hfo_wOH.
WARNING: Suggest using master species formula in SURFACE 
	 for surface related to equilibrium_phase: H_aH.
WARNING: Suggest using master species formula in SURFACE 
	 for surface related to equilibrium_phase: H_abH2.
WARNING: Suggest using master species formula in SURFACE 
	 for surface related to equilibrium_phase: H_adH2.
WARNING: Suggest using master species formula in SURFACE 
	 for surface related to equilibrium_phase: H_afH2.
WARNING: Suggest using master species formula in SURFACE 
	 for surface related to equilibrium_phase: H_ahH2.
WARNING: Suggest using master species formula in SURFACE 
	 for surface related to equilibrium_phase: H_bH.
WARNING: Suggest using master species formula in SURFACE 
	 for surface related to equilibrium_phase: H_bcH2.
WARNING: Suggest using master species formula in SURFACE 
	 for surface related to equilibrium_phase: H_beH2.
WARNING: Suggest using master species formula in SURFACE 
	 for surface related to equilibrium_phase: H_bgH2.
WARNING: Suggest using master species formula in SURFACE 
	 for surface related to equilibrium_phase: H_cH.
WARNING: Suggest using master species formula in SURFACE 
	 for surface related to equilibrium_phase: H_cdH2.
WARNING: Suggest using master species formula in SURFACE 
	 for surface related to equilibrium_phase: H_cfH2.
WARNING: Suggest using master species formula in SURFACE 
	 for surface related to equilibrium_phase: H_chH2.
WARNING: Suggest using master species formula in SURFACE 
	 for surface related to equilibrium_phase: H_dH.
WARNING: Suggest using master species formula in SURFACE 
	 for surface related to equilibrium_phase: H_deH2.
WARNING: Suggest using master species formula in SURFACE 
	 for surface related to equilibrium_phase: H_dgH2.
WARNING: Suggest using master species formula in SURFACE 
	 for surface related to equilibrium_phase: H_eH.
WARNING: Suggest using master species formula in SURFACE 
	 for surface related to equilibrium_phase: H_fH.
WARNING: Suggest using master species formula in SURFACE 
	 for surface related to equilibrium_phase: H_gH.
WARNING: Suggest using master species formula in SURFACE 
	 for surface related to equilibrium_phase: H_hH.
WARNING: Suggest using master species formula in SURFACE 
	 for surface related to equilibrium_phase: Hfo_sOH.
WARNING: Suggest using master species formula in SURFACE 
	 for surface related to equilibrium_phase: Hfo_wOH.
------------------------------------------------------
Beginning of initial surface-composition calculations.
------------------------------------------------------

Surface 1.	

Diffuse Double Layer Surface-Complexation Model

H             
	 -1.893e-03  Surface charge, eq
	 -2.138e-02  sigma, C/m²
	 -5.978e-02  psi, V
	  2.327e+00  -F*psi/RT
	  1.025e+01  exp(-F*psi/RT)
	  3.417e+04  specific area, m²/g
	  8.542e+03  m² for   2.500e-01 g


H_a           
	  3.837e-04  moles
	                                   Mole                     Log
	Species               Moles    Fraction    Molality    Molality

	H_a-              3.834e-04       0.999   3.834e-04      -3.416
	H_aCa+            2.605e-07       0.001   2.605e-07      -6.584
	H_aH              1.528e-08       0.000   1.528e-08      -7.816

H_ab          
	  6.378e-05  moles
	                                   Mole                     Log
	Species               Moles    Fraction    Molality    Molality

	H_ab-2            6.373e-05       0.999   6.373e-05      -4.196
	H_abH-            3.273e-08       0.001   3.273e-08      -7.485
	H_abCa            1.369e-08       0.000   1.369e-08      -7.863
	H_abH2            1.305e-12       0.000   1.305e-12     -11.884

H_ad          
	  6.378e-05  moles
	                                   Mole                     Log
	Species               Moles    Fraction    Molality    Molality

	H_ad-2            5.676e-05       0.890   5.676e-05      -4.246
	H_adH-            4.950e-06       0.078   4.950e-06      -5.305
	H_adCa            2.071e-06       0.032   2.071e-06      -5.684
	H_adH2            1.973e-10       0.000   1.973e-10      -9.705

H_af          
	  6.378e-05  moles
	                                   Mole                     Log
	Species               Moles    Fraction    Molality    Molality

	H_afH-            6.137e-05       0.962   6.137e-05      -4.212
	H_afCa            2.289e-06       0.036   2.289e-06      -5.640
	H_af-2            1.141e-07       0.002   1.141e-07      -6.943
	H_afH2            2.447e-09       0.000   2.447e-09      -8.611

H_ah          
	  6.378e-05  moles
	                                   Mole                     Log
	Species               Moles    Fraction    Molality    Molality

	H_ahH-            6.377e-05       1.000   6.377e-05      -4.195
	H_ahCa            4.229e-09       0.000   4.229e-09      -8.374
	H_ahH2            2.542e-09       0.000   2.542e-09      -8.595
	H_ah-2            2.478e-11       0.000   2.478e-11     -10.606

H_b           
	  3.837e-04  moles
	                                   Mole                     Log
	Species               Moles    Fraction    Molality    Molality

	H_b-              3.802e-04       0.991   3.802e-04      -3.420
	H_bCa+            3.328e-06       0.009   3.328e-06      -5.478
	H_bH              1.952e-07       0.001   1.952e-07      -6.709

H_bc          
	  6.378e-05  moles
	                                   Mole                     Log
	Species               Moles    Fraction    Molality    Molality

	H_bc-2            6.114e-05       0.959   6.114e-05      -4.214
	H_bcCa            2.231e-06       0.035   2.231e-06      -5.652
	H_bcH-            4.139e-07       0.006   4.139e-07      -6.383
	H_bcH2            2.125e-10       0.000   2.125e-10      -9.673

H_be          
	  6.378e-05  moles
	                                   Mole                     Log
	Species               Moles    Fraction    Molality    Molality

	H_beH-            5.644e-05       0.885   5.644e-05      -4.248
	H_be-2            7.261e-06       0.114   7.261e-06      -5.139
	H_beCa            4.821e-08       0.001   4.821e-08      -7.317
	H_beH2            2.899e-08       0.000   2.899e-08      -7.538

H_bg          
	  6.378e-05  moles
	                                   Mole                     Log
	Species               Moles    Fraction    Molality    Molality

	H_bgH-            6.369e-05       0.999   6.369e-05      -4.196
	H_bgCa            5.441e-08       0.001   5.441e-08      -7.264
	H_bgH2            3.271e-08       0.001   3.271e-08      -7.485
	H_bg-2            1.712e-09       0.000   1.712e-09      -8.767

H_c           
	  3.837e-04  moles
	                                   Mole                     Log
	Species               Moles    Fraction    Molality    Molality

	H_c-              3.419e-04       0.891   3.419e-04      -3.466
	H_cCa+            3.945e-05       0.103   3.945e-05      -4.404
	H_cH              2.315e-06       0.006   2.315e-06      -5.635

H_cd          
	  6.378e-05  moles
	                                   Mole                     Log
	Species               Moles    Fraction    Molality    Molality

	H_cdCa            5.426e-05       0.851   5.426e-05      -4.266
	H_cd-2            8.756e-06       0.137   8.756e-06      -5.058
	H_cdH-            7.636e-07       0.012   7.636e-07      -6.117
	H_cdH2            5.169e-09       0.000   5.169e-09      -8.287

H_cf          
	  6.378e-05  moles
	                                   Mole                     Log
	Species               Moles    Fraction    Molality    Molality

	H_cfH-            6.254e-05       0.980   6.254e-05      -4.204
	H_cfCa            7.042e-07       0.011   7.042e-07      -6.152
	H_cfH2            4.234e-07       0.007   4.234e-07      -6.373
	H_cf-2            1.163e-07       0.002   1.163e-07      -6.934

H_ch          
	  6.378e-05  moles
	                                   Mole                     Log
	Species               Moles    Fraction    Molality    Molality

	H_chH-            6.265e-05       0.982   6.265e-05      -4.203
	H_chCa            7.055e-07       0.011   7.055e-07      -6.151
	H_chH2            4.241e-07       0.007   4.241e-07      -6.372
	H_ch-2            2.434e-11       0.000   2.434e-11     -10.614

H_d           
	  3.837e-04  moles
	                                   Mole                     Log
	Species               Moles    Fraction    Molality    Molality

	H_dCa+            2.216e-04       0.578   2.216e-04      -3.654
	H_d-              1.491e-04       0.389   1.491e-04      -3.827
	H_dH              1.300e-05       0.034   1.300e-05      -4.886

H_de          
	  6.378e-05  moles
	                                   Mole                     Log
	Species               Moles    Fraction    Molality    Molality

	H_deH-            4.686e-05       0.735   4.686e-05      -4.329
	H_deCa            6.799e-06       0.107   6.799e-06      -5.168
	H_de-2            6.029e-06       0.095   6.029e-06      -5.220
	H_deH2            4.087e-06       0.064   4.087e-06      -5.389

H_dg          
	  6.378e-05  moles
	                                   Mole                     Log
	Species               Moles    Fraction    Molality    Molality

	H_dgH-            5.176e-05       0.811   5.176e-05      -4.286
	H_dgCa            7.508e-06       0.118   7.508e-06      -5.124
	H_dgH2            4.514e-06       0.071   4.514e-06      -5.345
	H_dg-2            1.391e-09       0.000   1.391e-09      -8.857

H_e           
	  1.919e-04  moles
	                                   Mole                     Log
	Species               Moles    Fraction    Molality    Molality

	H_eH              1.696e-04       0.884   1.696e-04      -3.771
	H_e-              2.182e-05       0.114   2.182e-05      -4.661
	H_eCa+            4.689e-07       0.002   4.689e-07      -6.329

H_f           
	  1.919e-04  moles
	                                   Mole                     Log
	Species               Moles    Fraction    Molality    Molality

	H_fH              1.910e-04       0.995   1.910e-04      -3.719
	H_fCa+            5.280e-07       0.003   5.280e-07      -6.277
	H_f-              3.552e-07       0.002   3.552e-07      -6.450

H_g           
	  1.919e-04  moles
	                                   Mole                     Log
	Species               Moles    Fraction    Molality    Molality

	H_gH              1.914e-04       0.997   1.914e-04      -3.718
	H_gCa+            5.290e-07       0.003   5.290e-07      -6.277
	H_g-              5.144e-09       0.000   5.144e-09      -8.289

H_h           
	  1.919e-04  moles
	                                   Mole                     Log
	Species               Moles    Fraction    Molality    Molality

	H_hH              1.914e-04       0.997   1.914e-04      -3.718
	H_hCa+            5.290e-07       0.003   5.290e-07      -6.277
	H_h-              7.435e-11       0.000   7.435e-11     -10.129

Hfo           
	  4.013e-07  Surface charge, eq
	  1.374e-02  sigma, C/m²
	  4.263e-02  psi, V
	 -1.659e+00  -F*psi/RT
	  1.903e-01  exp(-F*psi/RT)
	  1.068e+04  specific area, m²/mol redoxFe(OH)3(a)
	  2.818e+00  m² for   2.639e-04 moles of redoxFe(OH)3(a)


Hfo_s         
	  1.319e-06  moles	[0.005 mol/(mol redoxFe(OH)3(a))]
	                                   Mole                     Log
	Species               Moles    Fraction    Molality    Molality

	Hfo_sOH           5.678e-07       0.430   5.678e-07      -6.246
	Hfo_sOHCa+2       5.059e-07       0.383   5.059e-07      -6.296
	Hfo_sOH2+         2.107e-07       0.160   2.107e-07      -6.676
	Hfo_sO-           3.505e-08       0.027   3.505e-08      -7.455

Hfo_w         
	  5.278e-05  moles	[0.2 mol/(mol redoxFe(OH)3(a))]
	                                   Mole                     Log
	Species               Moles    Fraction    Molality    Molality

	Hfo_wOH           3.225e-05       0.611   3.225e-05      -4.492
	Hfo_wOH2+         1.197e-05       0.227   1.197e-05      -4.922
	Hfo_wOHSulfateO4-2   5.140e-06       0.097   5.140e-06      -5.289
	Hfo_wO-           1.991e-06       0.038   1.991e-06      -5.701
	Hfo_wSulfateO4-   9.563e-07       0.018   9.563e-07      -6.019
	Hfo_wOMg+         4.531e-07       0.009   4.531e-07      -6.344
	Hfo_wOCa+         2.285e-08       0.000   2.285e-08      -7.641

-----------------------------------------
Beginning of batch-reaction calculations.
-----------------------------------------

Reaction step 1.

Using solution 1.	
Using surface 1.	
Using pure phase assemblage 1.	
Using reaction 1.	

Reaction 1.	

	  1.000e+00 moles of the following reaction have been added:

	                 Relative
	Reactant            moles

	K2SulfateO4          0.00100

	                 Relative
	Element             moles
	K                    0.00200
	O                    0.00400
	Sulfate              0.00100

-------------------------------Phase assemblage--------------------------------

                                                      Moles in assemblage
Phase               SI  log IAP  log K(T, P)   Initial       Final       Delta

redoxFe(OH)3(a)    0.00     4.89      4.89    2.639e-04   8.743e-04   6.104e-04

------------------------------Surface composition------------------------------

Diffuse Double Layer Surface-Complexation Model

H             
	 -1.936e-03  Surface charge, eq
	 -2.187e-02  sigma, C/m²
	 -5.770e-02  psi, V
	  2.246e+00  -F*psi/RT
	  9.450e+00  exp(-F*psi/RT)
	  3.417e+04  specific area, m²/g
	  8.542e+03  m² for   2.500e-01 g


H_a           
	  3.837e-04  moles
	                                   Mole                     Log
	Species               Moles    Fraction    Molality    Molality

	H_a-              3.835e-04       0.999   3.835e-04      -3.416
	H_aCa+            2.194e-07       0.001   2.194e-07      -6.659
	H_aH              1.950e-08       0.000   1.950e-08      -7.710

H_ab          
	  6.378e-05  moles
	                                   Mole                     Log
	Species               Moles    Fraction    Molality    Molality

	H_ab-2            6.373e-05       0.999   6.373e-05      -4.196
	H_abH-            4.174e-08       0.001   4.174e-08      -7.379
	H_abCa            1.153e-08       0.000   1.153e-08      -7.938
	H_abH2            2.122e-12       0.000   2.122e-12     -11.673

H_ad          
	  6.378e-05  moles
	                                   Mole                     Log
	Species               Moles    Fraction    Molality    Molality

	H_ad-2            5.585e-05       0.876   5.585e-05      -4.253
	H_adH-            6.212e-06       0.097   6.212e-06      -5.207
	H_adCa            1.716e-06       0.027   1.716e-06      -5.765
	H_adH2            3.158e-10       0.000   3.158e-10      -9.501

H_af          
	  6.378e-05  moles
	                                   Mole                     Log
	Species               Moles    Fraction    Molality    Molality

	H_afH-            6.216e-05       0.975   6.216e-05      -4.207
	H_afCa            1.531e-06       0.024   1.531e-06      -5.815
	H_af-2            9.063e-08       0.001   9.063e-08      -7.043
	H_afH2            3.160e-09       0.000   3.160e-09      -8.500

H_ah          
	  6.378e-05  moles
	                                   Mole                     Log
	Species               Moles    Fraction    Molality    Molality

	H_ahH-            6.377e-05       1.000   6.377e-05      -4.195
	H_ahH2            3.242e-09       0.000   3.242e-09      -8.489
	H_ahCa            2.793e-09       0.000   2.793e-09      -8.554
	H_ah-2            1.943e-11       0.000   1.943e-11     -10.712

H_b           
	  3.837e-04  moles
	                                   Mole                     Log
	Species               Moles    Fraction    Molality    Molality

	H_b-              3.806e-04       0.992   3.806e-04      -3.419
	H_bCa+            2.806e-06       0.007   2.806e-06      -5.552
	H_bH              2.493e-07       0.001   2.493e-07      -6.603

H_bc          
	  6.378e-05  moles
	                                   Mole                     Log
	Species               Moles    Fraction    Molality    Molality

	H_bc-2            6.136e-05       0.962   6.136e-05      -4.212
	H_bcCa            1.886e-06       0.030   1.886e-06      -5.724
	H_bcH-            5.298e-07       0.008   5.298e-07      -6.276
	H_bcH2            3.470e-10       0.000   3.470e-10      -9.460

H_be          
	  6.378e-05  moles
	                                   Mole                     Log
	Species               Moles    Fraction    Molality    Molality

	H_beH-            5.787e-05       0.907   5.787e-05      -4.238
	H_be-2            5.838e-06       0.092   5.838e-06      -5.234
	H_beH2            3.790e-08       0.001   3.790e-08      -7.421
	H_beCa            3.265e-08       0.001   3.265e-08      -7.486

H_bg          
	  6.378e-05  moles
	                                   Mole                     Log
	Species               Moles    Fraction    Molality    Molality

	H_bgH-            6.370e-05       0.999   6.370e-05      -4.196
	H_bgH2            4.172e-08       0.001   4.172e-08      -7.380
	H_bgCa            3.594e-08       0.001   3.594e-08      -7.444
	H_bg-2            1.343e-09       0.000   1.343e-09      -8.872

H_c           
	  3.837e-04  moles
	                                   Mole                     Log
	Species               Moles    Fraction    Molality    Molality

	H_c-              3.470e-04       0.904   3.470e-04      -3.460
	H_cCa+            3.372e-05       0.088   3.372e-05      -4.472
	H_cH              2.996e-06       0.008   2.996e-06      -5.523

H_cd          
	  6.378e-05  moles
	                                   Mole                     Log
	Species               Moles    Fraction    Molality    Molality

	H_cdCa            5.258e-05       0.824   5.258e-05      -4.279
	H_cd-2            1.007e-05       0.158   1.007e-05      -4.997
	H_cdH-            1.120e-06       0.018   1.120e-06      -5.951
	H_cdH2            9.674e-09       0.000   9.674e-09      -8.014

H_cf          
	  6.378e-05  moles
	                                   Mole                     Log
	Species               Moles    Fraction    Molality    Molality

	H_cfH-            6.268e-05       0.983   6.268e-05      -4.203
	H_cfH2            5.412e-07       0.008   5.412e-07      -6.267
	H_cfCa            4.662e-07       0.007   4.662e-07      -6.331
	H_cf-2            9.139e-08       0.001   9.139e-08      -7.039

H_ch          
	  6.378e-05  moles
	                                   Mole                     Log
	Species               Moles    Fraction    Molality    Molality

	H_chH-            6.277e-05       0.984   6.277e-05      -4.202
	H_chH2            5.420e-07       0.008   5.420e-07      -6.266
	H_chCa            4.668e-07       0.007   4.668e-07      -6.331
	H_ch-2            1.912e-11       0.000   1.912e-11     -10.718

H_d           
	  3.837e-04  moles
	                                   Mole                     Log
	Species               Moles    Fraction    Molality    Molality

	H_dCa+            2.033e-04       0.530   2.033e-04      -3.692
	H_d-              1.624e-04       0.423   1.624e-04      -3.790
	H_dH              1.806e-05       0.047   1.806e-05      -4.743

H_de          
	  6.378e-05  moles
	                                   Mole                     Log
	Species               Moles    Fraction    Molality    Molality

	H_deH-            4.876e-05       0.765   4.877e-05      -4.312
	H_deH2            5.424e-06       0.085   5.424e-06      -5.266
	H_de-2            4.919e-06       0.077   4.919e-06      -5.308
	H_deCa            4.672e-06       0.073   4.672e-06      -5.331

H_dg          
	  6.378e-05  moles
	                                   Mole                     Log
	Species               Moles    Fraction    Molality    Molality

	H_dgH-            5.284e-05       0.828   5.284e-05      -4.277
	H_dgH2            5.877e-06       0.092   5.877e-06      -5.231
	H_dgCa            5.062e-06       0.079   5.062e-06      -5.296
	H_dg-2            1.114e-09       0.000   1.114e-09      -8.953

H_e           
	  1.919e-04  moles
	                                   Mole                     Log
	Species               Moles    Fraction    Molality    Molality

	H_eH              1.740e-04       0.907   1.740e-04      -3.759
	H_e-              1.755e-05       0.091   1.755e-05      -4.756
	H_eCa+            3.177e-07       0.002   3.177e-07      -6.498

H_f           
	  1.919e-04  moles
	                                   Mole                     Log
	Species               Moles    Fraction    Molality    Molality

	H_fH              1.913e-04       0.997   1.913e-04      -3.718
	H_fCa+            3.492e-07       0.002   3.492e-07      -6.457
	H_f-              2.789e-07       0.001   2.789e-07      -6.555

H_g           
	  1.919e-04  moles
	                                   Mole                     Log
	Species               Moles    Fraction    Molality    Molality

	H_gH              1.915e-04       0.998   1.915e-04      -3.718
	H_gCa+            3.497e-07       0.002   3.497e-07      -6.456
	H_g-              4.037e-09       0.000   4.037e-09      -8.394

H_h           
	  1.919e-04  moles
	                                   Mole                     Log
	Species               Moles    Fraction    Molality    Molality

	H_hH              1.916e-04       0.998   1.916e-04      -3.718
	H_hCa+            3.497e-07       0.002   3.497e-07      -6.456
	H_h-              5.835e-11       0.000   5.835e-11     -10.234

Hfo           
	  1.401e-06  Surface charge, eq
	  1.448e-02  sigma, C/m²
	  4.194e-02  psi, V
	 -1.633e+00  -F*psi/RT
	  1.954e-01  exp(-F*psi/RT)
	  1.068e+04  specific area, m²/mol redoxFe(OH)3(a)
	  9.337e+00  m² for   8.743e-04 moles of redoxFe(OH)3(a)


Hfo_s         
	  4.371e-06  moles	[0.005 mol/(mol redoxFe(OH)3(a))]
	                                   Mole                     Log
	Species               Moles    Fraction    Molality    Molality

	Hfo_sOH           1.748e-06       0.400   1.748e-06      -5.757
	Hfo_sOHCa+2       1.626e-06       0.372   1.626e-06      -5.789
	Hfo_sOH2+         9.211e-07       0.211   9.211e-07      -6.036
	Hfo_sO-           7.599e-08       0.017   7.599e-08      -7.119

Hfo_w         
	  1.749e-04  moles	[0.2 mol/(mol redoxFe(OH)3(a))]
	                                   Mole                     Log
	Species               Moles    Fraction    Molality    Molality

	Hfo_wOH           9.339e-05       0.534   9.339e-05      -4.030
	Hfo_wOH2+         4.921e-05       0.281   4.921e-05      -4.308
	Hfo_wOHSulfateO4-2   2.155e-05       0.123   2.155e-05      -4.667
	Hfo_wSulfateO4-   5.694e-06       0.033   5.694e-06      -5.245
	Hfo_wO-           4.060e-06       0.023   4.060e-06      -5.391
	Hfo_wOMg+         8.981e-07       0.005   8.981e-07      -6.047
	Hfo_wOCa+         4.867e-08       0.000   4.867e-08      -7.313

-----------------------------Solution composition------------------------------

	Elements           Molality       Moles

	Al                1.001e-05   1.001e-05
	Br                4.123e-06   4.123e-06
	C                 4.473e-03   4.473e-03
	Ca                5.228e-04   5.228e-04
	Cl                1.731e-03   1.731e-03
	Ferric            4.783e-08   4.783e-08
	K                 3.301e-03   3.301e-03
	Mg                5.500e-04   5.500e-04
	Na                1.015e-02   1.015e-02
	Nitrate           4.924e-03   4.924e-03
	Sulfate           2.680e-03   2.680e-03

----------------------------Description of solution----------------------------

                                       pH  =   6.859      Charge balance
                                       pe  =  -6.333      Adjusted to redox equilibrium
      Specific Conductance (µS/cm,  25°C)  = 1667
                        Activity of water  =   1.000
                 Ionic strength (mol/kgw)  =   1.840e-02
                       Mass of water (kg)  =   1.000e+00
                 Total alkalinity (eq/kg)  =   3.565e-03
                       Total CO2 (mol/kg)  =   4.473e-03
                         Temperature (°C)  =  25.00
                  Electrical balance (eq)  =   4.212e-05
 Percent error, 100*(Cat-|An|)/(Cat+|An|)  =   0.14
                               Iterations  =  18
                                  Total H  = 1.110157e+02
                                  Total O  = 5.554403e+01

----------------------------Distribution of species----------------------------

                                               Log       Log       Log    mole V
   Species          Molality    Activity  Molality  Activity     Gamma   cm³/mol

   H+              1.549e-07   1.383e-07    -6.810    -6.859    -0.049      0.00
   OH-             8.304e-08   7.235e-08    -7.081    -7.141    -0.060     (0)  
   H2O             5.551e+01   9.995e-01     1.744    -0.000     0.000     18.07
Al            1.001e-05
   Al(OH)4-        8.818e-06   7.714e-06    -5.055    -5.113    -0.058     (0)  
   Al(OH)2+        6.079e-07   5.318e-07    -6.216    -6.274    -0.058     (0)  
   Al(OH)3         5.639e-07   5.663e-07    -6.249    -6.247     0.002     (0)  
   AlOH+2          1.603e-08   9.387e-09    -7.795    -8.027    -0.232     (0)  
   AlSulfateO4+    6.756e-10   5.910e-10    -9.170    -9.228    -0.058     (0)  
   Al+3            3.638e-10   1.308e-10    -9.439    -9.884    -0.444     (0)  
   Al(SulfateO4)2-   3.053e-11   2.671e-11   -10.515   -10.573    -0.058     (0)  
   AlHSulfateO4+2   1.238e-17   7.247e-18   -16.907   -17.140    -0.232     (0)  
Br            4.123e-06
   Br-             4.123e-06   3.583e-06    -5.385    -5.446    -0.061     (0)  
C(4)          4.473e-03
   HCO3-           3.484e-03   3.064e-03    -2.458    -2.514    -0.056     (0)  
   CO2             9.491e-04   9.531e-04    -3.023    -3.021     0.002     (0)  
   NaHCO3          1.513e-05   1.519e-05    -4.820    -4.818     0.002     (0)  
   CaHCO3+         1.160e-05   1.021e-05    -4.935    -4.991    -0.056     (0)  
   MgHCO3+         1.110e-05   9.713e-06    -4.955    -5.013    -0.058     (0)  
   CO3-2           1.737e-06   1.039e-06    -5.760    -5.983    -0.223     (0)  
   CaCO3           4.538e-07   4.557e-07    -6.343    -6.341     0.002     (0)  
   MgCO3           2.675e-07   2.686e-07    -6.573    -6.571     0.002     (0)  
   NaCO3-          1.950e-07   1.706e-07    -6.710    -6.768    -0.058     (0)  
Ca            5.228e-04
   Ca+2            4.366e-04   2.611e-04    -3.360    -3.583    -0.223     (0)  
   CaSulfateO4     7.413e-05   7.445e-05    -4.130    -4.128     0.002     (0)  
   CaHCO3+         1.160e-05   1.021e-05    -4.935    -4.991    -0.056     (0)  
   CaCO3           4.538e-07   4.557e-07    -6.343    -6.341     0.002     (0)  
   CaOH+           3.580e-10   3.132e-10    -9.446    -9.504    -0.058     (0)  
   CaHSulfateO4+   6.895e-11   6.032e-11   -10.161   -10.220    -0.058     (0)  
Cl            1.731e-03
   Cl-             1.731e-03   1.509e-03    -2.762    -2.821    -0.060     (0)  
   FerricCl+2      1.604e-17   9.393e-18   -16.795   -17.027    -0.232     (0)  
   FerricCl2+      7.240e-20   6.333e-20   -19.140   -19.198    -0.058     (0)  
   FerricCl3       9.518e-24   9.559e-24   -23.021   -23.020     0.002     (0)  
Ferric        4.783e-08
   Ferric(OH)2+    2.631e-08   2.301e-08    -7.580    -7.638    -0.058     (0)  
   Ferric(OH)3     2.134e-08   2.143e-08    -7.671    -7.669     0.002     (0)  
   Ferric(OH)4-    1.615e-10   1.413e-10    -9.792    -9.850    -0.058     (0)  
   FerricOH+2      1.642e-11   9.617e-12   -10.785   -11.017    -0.232     (0)  
   FerricSulfateO4+   3.692e-15   3.229e-15   -14.433   -14.491    -0.058     (0)  
   Ferric+3        5.734e-16   2.061e-16   -15.242   -15.686    -0.444     (0)  
   Ferric(SulfateO4)2-   1.154e-16   1.010e-16   -15.938   -15.996    -0.058     (0)  
   FerricCl+2      1.604e-17   9.393e-18   -16.795   -17.027    -0.232     (0)  
   FerricCl2+      7.240e-20   6.333e-20   -19.140   -19.198    -0.058     (0)  
   Ferric2(OH)2+4   2.117e-20   2.489e-21   -19.674   -20.604    -0.930     (0)  
   FerricHSulfateO4+2   2.042e-21   1.196e-21   -20.690   -20.922    -0.232     (0)  
   FerricCl3       9.518e-24   9.559e-24   -23.021   -23.020     0.002     (0)  
   Ferric3(OH)4+5   3.393e-25   1.197e-26   -24.469   -25.922    -1.453     (0)  
H(0)          1.251e-04
   H2              6.257e-05   6.283e-05    -4.204    -4.202     0.002     (0)  
K             3.301e-03
   K+              3.268e-03   2.849e-03    -2.486    -2.545    -0.060     (0)  
   KSulfateO4-     3.271e-05   2.861e-05    -4.485    -4.543    -0.058     (0)  
   KOH             7.110e-11   7.141e-11   -10.148   -10.146     0.002     (0)  
Mg            5.500e-04
   Mg+2            4.482e-04   2.709e-04    -3.349    -3.567    -0.219     (0)  
   MgSulfateO4     9.039e-05   9.077e-05    -4.044    -4.042     0.002     (0)  
   MgHCO3+         1.110e-05   9.713e-06    -4.955    -5.013    -0.058     (0)  
   MgCO3           2.675e-07   2.686e-07    -6.573    -6.571     0.002     (0)  
   MgOH+           8.128e-09   7.110e-09    -8.090    -8.148    -0.058     (0)  
Na            1.015e-02
   Na+             1.006e-02   8.818e-03    -1.997    -2.055    -0.057     (0)  
   NaSulfateO4-    7.220e-05   6.316e-05    -4.141    -4.200    -0.058     (0)  
   NaHCO3          1.513e-05   1.519e-05    -4.820    -4.818     0.002     (0)  
   NaCO3-          1.950e-07   1.706e-07    -6.710    -6.768    -0.058     (0)  
   NaOH            4.193e-10   4.211e-10    -9.377    -9.376     0.002     (0)  
Nitrate       4.924e-03
   NitrateO3-      4.924e-03   4.307e-03    -2.308    -2.366    -0.058     (0)  
O(0)          0.000e+00
   O2              0.000e+00   0.000e+00   -83.979   -83.977     0.002     (0)  
Sulfate       2.680e-03
   SulfateO4-2     2.411e-03   1.429e-03    -2.618    -2.845    -0.227     (0)  
   MgSulfateO4     9.039e-05   9.077e-05    -4.044    -4.042     0.002     (0)  
   CaSulfateO4     7.413e-05   7.445e-05    -4.130    -4.128     0.002     (0)  
   NaSulfateO4-    7.220e-05   6.316e-05    -4.141    -4.200    -0.058     (0)  
   KSulfateO4-     3.271e-05   2.861e-05    -4.485    -4.543    -0.058     (0)  
   HSulfateO4-     2.197e-08   1.922e-08    -7.658    -7.716    -0.058     (0)  
   AlSulfateO4+    6.756e-10   5.910e-10    -9.170    -9.228    -0.058     (0)  
   CaHSulfateO4+   6.895e-11   6.032e-11   -10.161   -10.220    -0.058     (0)  
   Al(SulfateO4)2-   3.053e-11   2.671e-11   -10.515   -10.573    -0.058     (0)  
   FerricSulfateO4+   3.692e-15   3.229e-15   -14.433   -14.491    -0.058     (0)  
   Ferric(SulfateO4)2-   1.154e-16   1.010e-16   -15.938   -15.996    -0.058     (0)  
   AlHSulfateO4+2   1.238e-17   7.247e-18   -16.907   -17.140    -0.232     (0)  
   FerricHSulfateO4+2   2.042e-21   1.196e-21   -20.690   -20.922    -0.232     (0)  

------------------------------Saturation indices-------------------------------

  Phase               SI** log IAP   log K(298 K,   1 atm)

  Al(OH)3(a)       -0.11     10.69   10.80  Al(OH)3
  FixpH            -6.86     -6.86    0.00  H+
  Gibbsite          2.58     10.69    8.11  Al(OH)3
  H2(g)            -1.05     -4.20   -3.15  H2
  H2O(g)           -1.51     -0.00    1.51  H2O
  Halite           -6.46     -4.88    1.58  NaCl
  redoxAlunite      4.67      3.27   -1.40  KAl3(SulfateO4)2(OH)6
  redoxAnhydrite   -2.07     -6.43   -4.36  CaSulfateO4
  redoxAragonite   -1.23     -9.57   -8.34  CaCO3
  redoxCalcite     -1.09     -9.57   -8.48  CaCO3
  redoxCO2(g)      -1.55     -3.02   -1.47  CO2
  redoxDolomite    -2.03    -19.12  -17.09  CaMg(CO3)2
  redoxFe(OH)3(a)   0.00      4.89    4.89  Ferric(OH)3
  redoxGoethite     5.89      4.89   -1.00  FerricOOH
  redoxGypsum      -1.85     -6.43   -4.58  CaSulfateO4:2H2O
  redoxHematite    13.79      9.78   -4.01  Ferric2O3
  redoxJarosite-K  -4.93    -14.14   -9.21  KFerric3(SulfateO4)2(OH)6

**For a gas, SI = log10(fugacity). Fugacity = pressure * phi / 1 atm.
  For ideal gases, phi = 1.

Reaction step 2.

Using solution 1.	
Using surface 1.	
Using pure phase assemblage 1.	
Using reaction 1.	

Reaction 1.	

	  2.000e+00 moles of the following reaction have been added:

	                 Relative
	Reactant            moles

	K2SulfateO4          0.00100

	                 Relative
	Element             moles
	K                    0.00200
	O                    0.00400
	Sulfate              0.00100

-------------------------------Phase assemblage--------------------------------

                                                      Moles in assemblage
Phase               SI  log IAP  log K(T, P)   Initial       Final       Delta

redoxFe(OH)3(a)    0.00     4.89      4.89    2.639e-04   8.743e-04   6.104e-04

------------------------------Surface composition------------------------------

Diffuse Double Layer Surface-Complexation Model

H             
	 -1.986e-03  Surface charge, eq
	 -2.243e-02  sigma, C/m²
	 -5.587e-02  psi, V
	  2.175e+00  -F*psi/RT
	  8.798e+00  exp(-F*psi/RT)
	  3.417e+04  specific area, m²/g
	  8.542e+03  m² for   2.500e-01 g


H_a           
	  3.837e-04  moles
	                                   Mole                     Log
	Species               Moles    Fraction    Molality    Molality

	H_a-              3.835e-04       0.999   3.835e-04      -3.416
	H_aCa+            1.856e-07       0.000   1.856e-07      -6.731
	H_aH              1.823e-08       0.000   1.823e-08      -7.739

H_ab          
	  6.378e-05  moles
	                                   Mole                     Log
	Species               Moles    Fraction    Molality    Molality

	H_ab-2            6.373e-05       0.999   6.373e-05      -4.196
	H_abH-            3.902e-08       0.001   3.902e-08      -7.409
	H_abCa            9.756e-09       0.000   9.756e-09      -8.011
	H_abH2            1.855e-12       0.000   1.855e-12     -11.732

H_ad          
	  6.378e-05  moles
	                                   Mole                     Log
	Species               Moles    Fraction    Molality    Molality

	H_ad-2            5.644e-05       0.885   5.644e-05      -4.248
	H_adH-            5.869e-06       0.092   5.869e-06      -5.231
	H_adCa            1.467e-06       0.023   1.467e-06      -5.833
	H_adH2            2.789e-10       0.000   2.789e-10      -9.555

H_af          
	  6.378e-05  moles
	                                   Mole                     Log
	Species               Moles    Fraction    Molality    Molality

	H_afH-            6.229e-05       0.977   6.229e-05      -4.206
	H_afCa            1.388e-06       0.022   1.388e-06      -5.858
	H_af-2            9.716e-08       0.002   9.716e-08      -7.013
	H_afH2            2.961e-09       0.000   2.961e-09      -8.529

H_ah          
	  6.378e-05  moles
	                                   Mole                     Log
	Species               Moles    Fraction    Molality    Molality

	H_ahH-            6.377e-05       1.000   6.377e-05      -4.195
	H_ahH2            3.031e-09       0.000   3.031e-09      -8.518
	H_ahCa            2.527e-09       0.000   2.527e-09      -8.597
	H_ah-2            2.078e-11       0.000   2.078e-11     -10.682

H_b           
	  3.837e-04  moles
	                                   Mole                     Log
	Species               Moles    Fraction    Molality    Molality

	H_b-              3.811e-04       0.993   3.811e-04      -3.419
	H_bCa+            2.376e-06       0.006   2.376e-06      -5.624
	H_bH              2.333e-07       0.001   2.333e-07      -6.632

H_bc          
	  6.378e-05  moles
	                                   Mole                     Log
	Species               Moles    Fraction    Molality    Molality

	H_bc-2            6.168e-05       0.967   6.168e-05      -4.210
	H_bcCa            1.603e-06       0.025   1.603e-06      -5.795
	H_bcH-            4.978e-07       0.008   4.978e-07      -6.303
	H_bcH2            3.048e-10       0.000   3.048e-10      -9.516

H_be          
	  6.378e-05  moles
	                                   Mole                     Log
	Species               Moles    Fraction    Molality    Molality

	H_beH-            5.751e-05       0.902   5.751e-05      -4.240
	H_be-2            6.206e-06       0.097   6.206e-06      -5.207
	H_beH2            3.521e-08       0.001   3.521e-08      -7.453
	H_beCa            2.936e-08       0.000   2.936e-08      -7.532

H_bg          
	  6.378e-05  moles
	                                   Mole                     Log
	Species               Moles    Fraction    Molality    Molality

	H_bgH-            6.371e-05       0.999   6.371e-05      -4.196
	H_bgH2            3.901e-08       0.001   3.901e-08      -7.409
	H_bgCa            3.252e-08       0.001   3.252e-08      -7.488
	H_bg-2            1.436e-09       0.000   1.436e-09      -8.843

H_c           
	  3.837e-04  moles
	                                   Mole                     Log
	Species               Moles    Fraction    Molality    Molality

	H_c-              3.519e-04       0.917   3.519e-04      -3.454
	H_cCa+            2.893e-05       0.075   2.893e-05      -4.539
	H_cH              2.841e-06       0.007   2.841e-06      -5.547

H_cd          
	  6.378e-05  moles
	                                   Mole                     Log
	Species               Moles    Fraction    Molality    Molality

	H_cdCa            5.101e-05       0.800   5.101e-05      -4.292
	H_cd-2            1.156e-05       0.181   1.156e-05      -4.937
	H_cdH-            1.201e-06       0.019   1.201e-06      -5.920
	H_cdH2            9.698e-09       0.000   9.698e-09      -8.013

H_cf          
	  6.378e-05  moles
	                                   Mole                     Log
	Species               Moles    Fraction    Molality    Molality

	H_cfH-            6.275e-05       0.984   6.275e-05      -4.202
	H_cfH2            5.065e-07       0.008   5.065e-07      -6.295
	H_cfCa            4.223e-07       0.007   4.223e-07      -6.374
	H_cf-2            9.788e-08       0.002   9.788e-08      -7.009

H_ch          
	  6.378e-05  moles
	                                   Mole                     Log
	Species               Moles    Fraction    Molality    Molality

	H_chH-            6.285e-05       0.985   6.285e-05      -4.202
	H_chH2            5.073e-07       0.008   5.073e-07      -6.295
	H_chCa            4.229e-07       0.007   4.229e-07      -6.374
	H_ch-2            2.048e-11       0.000   2.048e-11     -10.689

H_d           
	  3.837e-04  moles
	                                   Mole                     Log
	Species               Moles    Fraction    Molality    Molality

	H_dCa+            1.879e-04       0.490   1.879e-04      -3.726
	H_d-              1.774e-04       0.462   1.774e-04      -3.751
	H_dH              1.844e-05       0.048   1.844e-05      -4.734

H_de          
	  6.378e-05  moles
	                                   Mole                     Log
	Species               Moles    Fraction    Molality    Molality

	H_deH-            4.912e-05       0.770   4.912e-05      -4.309
	H_de-2            5.300e-06       0.083   5.300e-06      -5.276
	H_deH2            5.107e-06       0.080   5.107e-06      -5.292
	H_deCa            4.258e-06       0.067   4.258e-06      -5.371

H_dg          
	  6.378e-05  moles
	                                   Mole                     Log
	Species               Moles    Fraction    Molality    Molality

	H_dgH-            5.357e-05       0.840   5.357e-05      -4.271
	H_dgH2            5.570e-06       0.087   5.570e-06      -5.254
	H_dgCa            4.644e-06       0.073   4.644e-06      -5.333
	H_dg-2            1.208e-09       0.000   1.208e-09      -8.918

H_e           
	  1.919e-04  moles
	                                   Mole                     Log
	Species               Moles    Fraction    Molality    Molality

	H_eH              1.730e-04       0.901   1.730e-04      -3.762
	H_e-              1.866e-05       0.097   1.866e-05      -4.729
	H_eCa+            2.857e-07       0.001   2.857e-07      -6.544

H_f           
	  1.919e-04  moles
	                                   Mole                     Log
	Species               Moles    Fraction    Molality    Molality

	H_fH              1.913e-04       0.997   1.913e-04      -3.718
	H_fCa+            3.160e-07       0.002   3.160e-07      -6.500
	H_f-              2.984e-07       0.002   2.984e-07      -6.525

H_g           
	  1.919e-04  moles
	                                   Mole                     Log
	Species               Moles    Fraction    Molality    Molality

	H_gH              1.916e-04       0.998   1.916e-04      -3.718
	H_gCa+            3.165e-07       0.002   3.165e-07      -6.500
	H_g-              4.319e-09       0.000   4.319e-09      -8.365

H_h           
	  1.919e-04  moles
	                                   Mole                     Log
	Species               Moles    Fraction    Molality    Molality

	H_hH              1.916e-04       0.998   1.916e-04      -3.718
	H_hCa+            3.165e-07       0.002   3.165e-07      -6.500
	H_h-              6.243e-11       0.000   6.243e-11     -10.205

Hfo           
	  1.401e-06  Surface charge, eq
	  1.448e-02  sigma, C/m²
	  3.957e-02  psi, V
	 -1.540e+00  -F*psi/RT
	  2.143e-01  exp(-F*psi/RT)
	  1.068e+04  specific area, m²/mol redoxFe(OH)3(a)
	  9.337e+00  m² for   8.743e-04 moles of redoxFe(OH)3(a)


Hfo_s         
	  4.371e-06  moles	[0.005 mol/(mol redoxFe(OH)3(a))]
	                                   Mole                     Log
	Species               Moles    Fraction    Molality    Molality

	Hfo_sOHCa+2       1.760e-06       0.403   1.760e-06      -5.754
	Hfo_sOH           1.612e-06       0.369   1.612e-06      -5.793
	Hfo_sOH2+         9.353e-07       0.214   9.353e-07      -6.029
	Hfo_sO-           6.366e-08       0.015   6.366e-08      -7.196

Hfo_w         
	  1.749e-04  moles	[0.2 mol/(mol redoxFe(OH)3(a))]
	                                   Mole                     Log
	Species               Moles    Fraction    Molality    Molality

	Hfo_wOH           8.924e-05       0.510   8.924e-05      -4.049
	Hfo_wOH2+         5.178e-05       0.296   5.178e-05      -4.286
	Hfo_wOHSulfateO4-2   2.277e-05       0.130   2.277e-05      -4.643
	Hfo_wSulfateO4-   6.624e-06       0.038   6.624e-06      -5.179
	Hfo_wO-           3.524e-06       0.020   3.524e-06      -5.453
	Hfo_wOMg+         8.702e-07       0.005   8.702e-07      -6.060
	Hfo_wOCa+         4.956e-08       0.000   4.956e-08      -7.305

-----------------------------Solution composition------------------------------

	Elements           Molality       Moles

	Al                1.001e-05   1.001e-05
	Br                4.123e-06   4.123e-06
	C                 4.473e-03   4.473e-03
	Ca                5.466e-04   5.466e-04
	Cl                1.731e-03   1.731e-03
	Ferric            4.813e-08   4.813e-08
	K                 5.301e-03   5.301e-03
	Mg                5.500e-04   5.500e-04
	Na                1.015e-02   1.015e-02
	Nitrate           4.924e-03   4.924e-03
	Sulfate           3.678e-03   3.678e-03

----------------------------Description of solution----------------------------

                                       pH  =   6.857      Charge balance
                                       pe  =  -6.332      Adjusted to redox equilibrium
      Specific Conductance (µS/cm,  25°C)  = 1904
                        Activity of water  =   0.999
                 Ionic strength (mol/kgw)  =   2.115e-02
                       Mass of water (kg)  =   1.000e+00
                 Total alkalinity (eq/kg)  =   3.568e-03
                       Total CO2 (mol/kg)  =   4.473e-03
                         Temperature (°C)  =  25.00
                  Electrical balance (eq)  =   9.153e-05
 Percent error, 100*(Cat-|An|)/(Cat+|An|)  =   0.27
                               Iterations  =  18
                                  Total H  = 1.110157e+02
                                  Total O  = 5.554802e+01

----------------------------Distribution of species----------------------------

                                               Log       Log       Log    mole V
   Species          Molality    Activity  Molality  Activity     Gamma   cm³/mol

   H+              1.565e-07   1.389e-07    -6.806    -6.857    -0.052      0.00
   OH-             8.341e-08   7.206e-08    -7.079    -7.142    -0.064     (0)  
   H2O             5.551e+01   9.995e-01     1.744    -0.000     0.000     18.07
Al            1.001e-05
   Al(OH)4-        8.815e-06   7.651e-06    -5.055    -5.116    -0.062     (0)  
   Al(OH)2+        6.127e-07   5.318e-07    -6.213    -6.274    -0.062     (0)  
   Al(OH)3         5.612e-07   5.640e-07    -6.251    -6.249     0.002     (0)  
   AlOH+2          1.661e-08   9.426e-09    -7.780    -8.026    -0.246     (0)  
   AlSulfateO4+    9.127e-10   7.922e-10    -9.040    -9.101    -0.062     (0)  
   Al+3            3.863e-10   1.318e-10    -9.413    -9.880    -0.467     (0)  
   Al(SulfateO4)2-   5.485e-11   4.760e-11   -10.261   -10.322    -0.062     (0)  
   AlHSulfateO4+2   1.719e-17   9.753e-18   -16.765   -17.011    -0.246     (0)  
Br            4.123e-06
   Br-             4.123e-06   3.551e-06    -5.385    -5.450    -0.065     (0)  
C(4)          4.473e-03
   HCO3-           3.488e-03   3.045e-03    -2.457    -2.516    -0.059     (0)  
   CO2             9.465e-04   9.511e-04    -3.024    -3.022     0.002     (0)  
   NaHCO3          1.487e-05   1.495e-05    -4.828    -4.825     0.002     (0)  
   CaHCO3+         1.134e-05   9.897e-06    -4.946    -5.004    -0.059     (0)  
   MgHCO3+         1.033e-05   8.961e-06    -4.986    -5.048    -0.062     (0)  
   CO3-2           1.770e-06   1.028e-06    -5.752    -5.988    -0.236     (0)  
   CaCO3           4.380e-07   4.401e-07    -6.359    -6.356     0.002     (0)  
   MgCO3           2.456e-07   2.468e-07    -6.610    -6.608     0.002     (0)  
   NaCO3-          1.926e-07   1.672e-07    -6.715    -6.777    -0.062     (0)  
Ca            5.466e-04
   Ca+2            4.387e-04   2.548e-04    -3.358    -3.594    -0.236     (0)  
   CaSulfateO4     9.613e-05   9.659e-05    -4.017    -4.015     0.002     (0)  
   CaHCO3+         1.134e-05   9.897e-06    -4.946    -5.004    -0.059     (0)  
   CaCO3           4.380e-07   4.401e-07    -6.359    -6.356     0.002     (0)  
   CaOH+           3.507e-10   3.043e-10    -9.455    -9.517    -0.062     (0)  
   CaHSulfateO4+   9.053e-11   7.858e-11   -10.043   -10.105    -0.062     (0)  
Cl            1.731e-03
   Cl-             1.731e-03   1.497e-03    -2.762    -2.825    -0.063     (0)  
   FerricCl+2      1.662e-17   9.429e-18   -16.779   -17.026    -0.246     (0)  
   FerricCl2+      7.263e-20   6.304e-20   -19.139   -19.200    -0.062     (0)  
   FerricCl3       9.389e-24   9.435e-24   -23.027   -23.025     0.002     (0)  
Ferric        4.813e-08
   Ferric(OH)2+    2.663e-08   2.311e-08    -7.575    -7.636    -0.062     (0)  
   Ferric(OH)3     2.132e-08   2.143e-08    -7.671    -7.669     0.002     (0)  
   Ferric(OH)4-    1.621e-10   1.407e-10    -9.790    -9.852    -0.062     (0)  
   FerricOH+2      1.709e-11   9.696e-12   -10.767   -11.013    -0.246     (0)  
   FerricSulfateO4+   5.008e-15   4.347e-15   -14.300   -14.362    -0.062     (0)  
   Ferric+3        6.113e-16   2.086e-16   -15.214   -15.681    -0.467     (0)  
   Ferric(SulfateO4)2-   2.082e-16   1.807e-16   -15.681   -15.743    -0.062     (0)  
   FerricCl+2      1.662e-17   9.429e-18   -16.779   -17.026    -0.246     (0)  
   FerricCl2+      7.263e-20   6.304e-20   -19.139   -19.200    -0.062     (0)  
   Ferric2(OH)2+4   2.441e-20   2.530e-21   -19.612   -20.597    -0.984     (0)  
   FerricHSulfateO4+2   2.848e-21   1.616e-21   -20.545   -20.791    -0.246     (0)  
   FerricCl3       9.389e-24   9.435e-24   -23.027   -23.025     0.002     (0)  
   Ferric3(OH)4+5   4.217e-25   1.222e-26   -24.375   -25.913    -1.538     (0)  
H(0)          1.251e-04
   H2              6.257e-05   6.287e-05    -4.204    -4.202     0.002     (0)  
K             5.301e-03
   K+              5.231e-03   4.523e-03    -2.281    -2.345    -0.063     (0)  
   KSulfateO4-     6.957e-05   6.038e-05    -4.158    -4.219    -0.062     (0)  
   KOH             1.123e-10   1.129e-10    -9.950    -9.947     0.002     (0)  
Mg            5.500e-04
   Mg+2            4.279e-04   2.515e-04    -3.369    -3.599    -0.231     (0)  
   MgSulfateO4     1.115e-04   1.120e-04    -3.953    -3.951     0.002     (0)  
   MgHCO3+         1.033e-05   8.961e-06    -4.986    -5.048    -0.062     (0)  
   MgCO3           2.456e-07   2.468e-07    -6.610    -6.608     0.002     (0)  
   MgOH+           7.574e-09   6.574e-09    -8.121    -8.182    -0.062     (0)  
Na            1.015e-02
   Na+             1.004e-02   8.730e-03    -1.998    -2.059    -0.061     (0)  
   NaSulfateO4-    9.579e-05   8.314e-05    -4.019    -4.080    -0.062     (0)  
   NaHCO3          1.487e-05   1.495e-05    -4.828    -4.825     0.002     (0)  
   NaCO3-          1.926e-07   1.672e-07    -6.715    -6.777    -0.062     (0)  
   NaOH            4.131e-10   4.152e-10    -9.384    -9.382     0.002     (0)  
Nitrate       4.924e-03
   NitrateO3-      4.924e-03   4.273e-03    -2.308    -2.369    -0.062     (0)  
O(0)          0.000e+00
   O2              0.000e+00   0.000e+00   -83.979   -83.977     0.002     (0)  
Sulfate       3.678e-03
   SulfateO4-2     3.305e-03   1.900e-03    -2.481    -2.721    -0.240     (0)  
   MgSulfateO4     1.115e-04   1.120e-04    -3.953    -3.951     0.002     (0)  
   CaSulfateO4     9.613e-05   9.659e-05    -4.017    -4.015     0.002     (0)  
   NaSulfateO4-    9.579e-05   8.314e-05    -4.019    -4.080    -0.062     (0)  
   KSulfateO4-     6.957e-05   6.038e-05    -4.158    -4.219    -0.062     (0)  
   HSulfateO4-     2.956e-08   2.565e-08    -7.529    -7.591    -0.062     (0)  
   AlSulfateO4+    9.127e-10   7.922e-10    -9.040    -9.101    -0.062     (0)  
   CaHSulfateO4+   9.053e-11   7.858e-11   -10.043   -10.105    -0.062     (0)  
   Al(SulfateO4)2-   5.485e-11   4.760e-11   -10.261   -10.322    -0.062     (0)  
   FerricSulfateO4+   5.008e-15   4.347e-15   -14.300   -14.362    -0.062     (0)  
   Ferric(SulfateO4)2-   2.082e-16   1.807e-16   -15.681   -15.743    -0.062     (0)  
   AlHSulfateO4+2   1.719e-17   9.753e-18   -16.765   -17.011    -0.246     (0)  
   FerricHSulfateO4+2   2.848e-21   1.616e-21   -20.545   -20.791    -0.246     (0)  

------------------------------Saturation indices-------------------------------

  Phase               SI** log IAP   log K(298 K,   1 atm)

  Al(OH)3(a)       -0.11     10.69   10.80  Al(OH)3
  FixpH            -6.86     -6.86    0.00  H+
  Gibbsite          2.58     10.69    8.11  Al(OH)3
  H2(g)            -1.05     -4.20   -3.15  H2
  H2O(g)           -1.51     -0.00    1.51  H2O
  Halite           -6.47     -4.88    1.58  NaCl
  redoxAlunite      5.12      3.72   -1.40  KAl3(SulfateO4)2(OH)6
  redoxAnhydrite   -1.95     -6.32   -4.36  CaSulfateO4
  redoxAragonite   -1.25     -9.58   -8.34  CaCO3
  redoxCalcite     -1.10     -9.58   -8.48  CaCO3
  redoxCO2(g)      -1.55     -3.02   -1.47  CO2
  redoxDolomite    -2.08    -19.17  -17.09  CaMg(CO3)2
  redoxFe(OH)3(a)   0.00      4.89    4.89  Ferric(OH)3
  redoxGoethite     5.89      4.89   -1.00  FerricOOH
  redoxGypsum      -1.73     -6.32   -4.58  CaSulfateO4:2H2O
  redoxHematite    13.79      9.78   -4.01  Ferric2O3
  redoxJarosite-K  -4.48    -13.69   -9.21  KFerric3(SulfateO4)2(OH)6

**For a gas, SI = log10(fugacity). Fugacity = pressure * phi / 1 atm.
  For ideal gases, phi = 1.

Reaction step 3.

Using solution 1.	
Using surface 1.	
Using pure phase assemblage 1.	
Using reaction 1.	

Reaction 1.	

	  3.000e+00 moles of the following reaction have been added:

	                 Relative
	Reactant            moles

	K2SulfateO4          0.00100

	                 Relative
	Element             moles
	K                    0.00200
	O                    0.00400
	Sulfate              0.00100

-------------------------------Phase assemblage--------------------------------

                                                      Moles in assemblage
Phase               SI  log IAP  log K(T, P)   Initial       Final       Delta

redoxFe(OH)3(a)   -0.00     4.89      4.89    2.639e-04   8.743e-04   6.104e-04

------------------------------Surface composition------------------------------

Diffuse Double Layer Surface-Complexation Model

H             
	 -2.029e-03  Surface charge, eq
	 -2.292e-02  sigma, C/m²
	 -5.425e-02  psi, V
	  2.112e+00  -F*psi/RT
	  8.263e+00  exp(-F*psi/RT)
	  3.417e+04  specific area, m²/g
	  8.542e+03  m² for   2.500e-01 g


H_a           
	  3.837e-04  moles
	                                   Mole                     Log
	Species               Moles    Fraction    Molality    Molality

	H_a-              3.835e-04       1.000   3.835e-04      -3.416
	H_aCa+            1.599e-07       0.000   1.599e-07      -6.796
	H_aH              1.720e-08       0.000   1.720e-08      -7.765

H_ab          
	  6.378e-05  moles
	                                   Mole                     Log
	Species               Moles    Fraction    Molality    Molality

	H_ab-2            6.373e-05       0.999   6.373e-05      -4.196
	H_abH-            3.682e-08       0.001   3.682e-08      -7.434
	H_abCa            8.403e-09       0.000   8.403e-09      -8.076
	H_abH2            1.651e-12       0.000   1.651e-12     -11.782

H_ad          
	  6.378e-05  moles
	                                   Mole                     Log
	Species               Moles    Fraction    Molality    Molality

	H_ad-2            5.692e-05       0.892   5.692e-05      -4.245
	H_adH-            5.584e-06       0.088   5.584e-06      -5.253
	H_adCa            1.275e-06       0.020   1.275e-06      -5.895
	H_adH2            2.504e-10       0.000   2.504e-10      -9.601

H_af          
	  6.378e-05  moles
	                                   Mole                     Log
	Species               Moles    Fraction    Molality    Molality

	H_afH-            6.240e-05       0.978   6.240e-05      -4.205
	H_afCa            1.269e-06       0.020   1.269e-06      -5.896
	H_af-2            1.032e-07       0.002   1.032e-07      -6.986
	H_afH2            2.798e-09       0.000   2.798e-09      -8.553

H_ah          
	  6.378e-05  moles
	                                   Mole                     Log
	Species               Moles    Fraction    Molality    Molality

	H_ahH-            6.377e-05       1.000   6.378e-05      -4.195
	H_ahH2            2.860e-09       0.000   2.860e-09      -8.544
	H_ahCa            2.307e-09       0.000   2.307e-09      -8.637
	H_ah-2            2.203e-11       0.000   2.203e-11     -10.657

H_b           
	  3.837e-04  moles
	                                   Mole                     Log
	Species               Moles    Fraction    Molality    Molality

	H_b-              3.814e-04       0.994   3.814e-04      -3.419
	H_bCa+            2.049e-06       0.005   2.049e-06      -5.689
	H_bH              2.203e-07       0.001   2.203e-07      -6.657

H_bc          
	  6.378e-05  moles
	                                   Mole                     Log
	Species               Moles    Fraction    Molality    Molality

	H_bc-2            6.192e-05       0.971   6.192e-05      -4.208
	H_bcCa            1.386e-06       0.022   1.387e-06      -5.858
	H_bcH-            4.715e-07       0.007   4.715e-07      -6.326
	H_bcH2            2.724e-10       0.000   2.724e-10      -9.565

H_be          
	  6.378e-05  moles
	                                   Mole                     Log
	Species               Moles    Fraction    Molality    Molality

	H_beH-            5.718e-05       0.897   5.718e-05      -4.243
	H_be-2            6.540e-06       0.103   6.540e-06      -5.184
	H_beH2            3.303e-08       0.001   3.303e-08      -7.481
	H_beCa            2.665e-08       0.000   2.665e-08      -7.574

H_bg          
	  6.378e-05  moles
	                                   Mole                     Log
	Species               Moles    Fraction    Molality    Molality

	H_bgH-            6.371e-05       0.999   6.371e-05      -4.196
	H_bgH2            3.680e-08       0.001   3.680e-08      -7.434
	H_bgCa            2.969e-08       0.000   2.969e-08      -7.527
	H_bg-2            1.522e-09       0.000   1.522e-09      -8.817

H_c           
	  3.837e-04  moles
	                                   Mole                     Log
	Species               Moles    Fraction    Molality    Molality

	H_c-              3.558e-04       0.927   3.558e-04      -3.449
	H_cCa+            2.519e-05       0.066   2.519e-05      -4.599
	H_cH              2.709e-06       0.007   2.709e-06      -5.567

H_cd          
	  6.378e-05  moles
	                                   Mole                     Log
	Species               Moles    Fraction    Molality    Molality

	H_cdCa            4.948e-05       0.776   4.948e-05      -4.306
	H_cd-2            1.301e-05       0.204   1.301e-05      -4.886
	H_cdH-            1.277e-06       0.020   1.277e-06      -5.894
	H_cdH2            9.721e-09       0.000   9.721e-09      -8.012

H_cf          
	  6.378e-05  moles
	                                   Mole                     Log
	Species               Moles    Fraction    Molality    Molality

	H_cfH-            6.281e-05       0.985   6.281e-05      -4.202
	H_cfH2            4.783e-07       0.007   4.783e-07      -6.320
	H_cfCa            3.859e-07       0.006   3.859e-07      -6.414
	H_cf-2            1.038e-07       0.002   1.038e-07      -6.984

H_ch          
	  6.378e-05  moles
	                                   Mole                     Log
	Species               Moles    Fraction    Molality    Molality

	H_chH-            6.291e-05       0.986   6.291e-05      -4.201
	H_chH2            4.791e-07       0.008   4.791e-07      -6.320
	H_chCa            3.865e-07       0.006   3.865e-07      -6.413
	H_ch-2            2.173e-11       0.000   2.173e-11     -10.663

H_d           
	  3.837e-04  moles
	                                   Mole                     Log
	Species               Moles    Fraction    Molality    Molality

	H_d-              1.909e-04       0.497   1.909e-04      -3.719
	H_dCa+            1.741e-04       0.454   1.741e-04      -3.759
	H_dH              1.872e-05       0.049   1.872e-05      -4.728

H_de          
	  6.378e-05  moles
	                                   Mole                     Log
	Species               Moles    Fraction    Molality    Molality

	H_deH-            4.938e-05       0.774   4.938e-05      -4.306
	H_de-2            5.648e-06       0.089   5.648e-06      -5.248
	H_deH2            4.844e-06       0.076   4.844e-06      -5.315
	H_deCa            3.908e-06       0.061   3.908e-06      -5.408

H_dg          
	  6.378e-05  moles
	                                   Mole                     Log
	Species               Moles    Fraction    Molality    Molality

	H_dgH-            5.418e-05       0.849   5.418e-05      -4.266
	H_dgH2            5.315e-06       0.083   5.315e-06      -5.275
	H_dgCa            4.288e-06       0.067   4.288e-06      -5.368
	H_dg-2            1.295e-09       0.000   1.295e-09      -8.888

H_e           
	  1.919e-04  moles
	                                   Mole                     Log
	Species               Moles    Fraction    Molality    Molality

	H_eH              1.720e-04       0.896   1.720e-04      -3.765
	H_e-              1.967e-05       0.102   1.967e-05      -4.706
	H_eCa+            2.593e-07       0.001   2.593e-07      -6.586

H_f           
	  1.919e-04  moles
	                                   Mole                     Log
	Species               Moles    Fraction    Molality    Molality

	H_fH              1.913e-04       0.997   1.913e-04      -3.718
	H_f-              3.163e-07       0.002   3.163e-07      -6.500
	H_fCa+            2.885e-07       0.002   2.885e-07      -6.540

H_g           
	  1.919e-04  moles
	                                   Mole                     Log
	Species               Moles    Fraction    Molality    Molality

	H_gH              1.916e-04       0.998   1.916e-04      -3.718
	H_gCa+            2.889e-07       0.002   2.889e-07      -6.539
	H_g-              4.579e-09       0.000   4.579e-09      -8.339

H_h           
	  1.919e-04  moles
	                                   Mole                     Log
	Species               Moles    Fraction    Molality    Molality

	H_hH              1.916e-04       0.998   1.916e-04      -3.718
	H_hCa+            2.890e-07       0.002   2.890e-07      -6.539
	H_h-              6.618e-11       0.000   6.618e-11     -10.179

Hfo           
	  1.411e-06  Surface charge, eq
	  1.459e-02  sigma, C/m²
	  3.781e-02  psi, V
	 -1.472e+00  -F*psi/RT
	  2.295e-01  exp(-F*psi/RT)
	  1.068e+04  specific area, m²/mol redoxFe(OH)3(a)
	  9.337e+00  m² for   8.743e-04 moles of redoxFe(OH)3(a)


Hfo_s         
	  4.371e-06  moles	[0.005 mol/(mol redoxFe(OH)3(a))]
	                                   Mole                     Log
	Species               Moles    Fraction    Molality    Molality

	Hfo_sOHCa+2       1.854e-06       0.424   1.854e-06      -5.732
	Hfo_sOH           1.516e-06       0.347   1.516e-06      -5.819
	Hfo_sOH2+         9.462e-07       0.216   9.462e-07      -6.024
	Hfo_sO-           5.561e-08       0.013   5.561e-08      -7.255

Hfo_w         
	  1.749e-04  moles	[0.2 mol/(mol redoxFe(OH)3(a))]
	                                   Mole                     Log
	Species               Moles    Fraction    Molality    Molality

	Hfo_wOH           8.606e-05       0.492   8.606e-05      -4.065
	Hfo_wOH2+         5.373e-05       0.307   5.373e-05      -4.270
	Hfo_wOHSulfateO4-2   2.362e-05       0.135   2.362e-05      -4.627
	Hfo_wSulfateO4-   7.397e-06       0.042   7.397e-06      -5.131
	Hfo_wO-           3.158e-06       0.018   3.158e-06      -5.501
	Hfo_wOMg+         8.383e-07       0.005   8.383e-07      -6.077
	Hfo_wOCa+         4.977e-08       0.000   4.977e-08      -7.303

-----------------------------Solution composition------------------------------

	Elements           Molality       Moles

	Al                1.001e-05   1.001e-05
	Br                4.123e-06   4.123e-06
	C                 4.473e-03   4.473e-03
	Ca                5.673e-04   5.673e-04
	Cl                1.731e-03   1.731e-03
	Ferric            4.843e-08   4.843e-08
	K                 7.301e-03   7.301e-03
	Mg                5.500e-04   5.500e-04
	Na                1.015e-02   1.015e-02
	Nitrate           4.924e-03   4.924e-03
	Sulfate           4.676e-03   4.676e-03

----------------------------Description of solution----------------------------

                                       pH  =   6.855      Charge balance
                                       pe  =  -6.330      Adjusted to redox equilibrium
      Specific Conductance (µS/cm,  25°C)  = 2137
                        Activity of water  =   0.999
                 Ionic strength (mol/kgw)  =   2.391e-02
                       Mass of water (kg)  =   1.000e+00
                 Total alkalinity (eq/kg)  =   3.569e-03
                       Total CO2 (mol/kg)  =   4.473e-03
                         Temperature (°C)  =  25.00
                  Electrical balance (eq)  =   1.345e-04
 Percent error, 100*(Cat-|An|)/(Cat+|An|)  =   0.36
                               Iterations  =  18
                                  Total H  = 1.110157e+02
                                  Total O  = 5.555202e+01

----------------------------Distribution of species----------------------------

                                               Log       Log       Log    mole V
   Species          Molality    Activity  Molality  Activity     Gamma   cm³/mol

   H+              1.580e-07   1.395e-07    -6.801    -6.855    -0.054      0.00
   OH-             8.368e-08   7.172e-08    -7.077    -7.144    -0.067     (0)  
   H2O             5.551e+01   9.994e-01     1.744    -0.000     0.000     18.07
Al            1.001e-05
   Al(OH)4-        8.811e-06   7.593e-06    -5.055    -5.120    -0.065     (0)  
   Al(OH)2+        6.181e-07   5.326e-07    -6.209    -6.274    -0.065     (0)  
   Al(OH)3         5.592e-07   5.623e-07    -6.252    -6.250     0.002     (0)  
   AlOH+2          1.720e-08   9.485e-09    -7.764    -8.023    -0.259     (0)  
   AlSulfateO4+    1.147e-09   9.887e-10    -8.940    -9.005    -0.065     (0)  
   Al+3            4.091e-10   1.333e-10    -9.388    -9.875    -0.487     (0)  
   Al(SulfateO4)2-   8.511e-11   7.334e-11   -10.070   -10.135    -0.065     (0)  
   AlHSulfateO4+2   2.218e-17   1.223e-17   -16.654   -16.913    -0.259     (0)  
Br            4.123e-06
   Br-             4.123e-06   3.522e-06    -5.385    -5.453    -0.068     (0)  
C(4)          4.473e-03
   HCO3-           3.491e-03   3.027e-03    -2.457    -2.519    -0.062     (0)  
   CO2             9.447e-04   9.499e-04    -3.025    -3.022     0.002     (0)  
   NaHCO3          1.464e-05   1.472e-05    -4.834    -4.832     0.002     (0)  
   CaHCO3+         1.108e-05   9.608e-06    -4.955    -5.017    -0.062     (0)  
   MgHCO3+         9.686e-06   8.347e-06    -5.014    -5.078    -0.065     (0)  
   CO3-2           1.799e-06   1.018e-06    -5.745    -5.992    -0.248     (0)  
   CaCO3           4.230e-07   4.253e-07    -6.374    -6.371     0.002     (0)  
   MgCO3           2.276e-07   2.289e-07    -6.643    -6.640     0.002     (0)  
   NaCO3-          1.902e-07   1.639e-07    -6.721    -6.785    -0.065     (0)  
Ca            5.673e-04
   Ca+2            4.400e-04   2.488e-04    -3.357    -3.604    -0.248     (0)  
   CaSulfateO4     1.158e-04   1.164e-04    -3.936    -3.934     0.002     (0)  
   CaHCO3+         1.108e-05   9.608e-06    -4.955    -5.017    -0.062     (0)  
   CaCO3           4.230e-07   4.253e-07    -6.374    -6.371     0.002     (0)  
   CaOH+           3.433e-10   2.958e-10    -9.464    -9.529    -0.065     (0)  
   CaHSulfateO4+   1.104e-10   9.516e-11    -9.957   -10.022    -0.065     (0)  
Cl            1.731e-03
   Cl-             1.731e-03   1.485e-03    -2.762    -2.828    -0.067     (0)  
[...]

**For a gas, SI = log10(fugacity). Fugacity = pressure * phi / 1 atm.
  For ideal gases, phi = 1.

Reaction step 40.

Using solution 1.	
Using surface 1.	
Using pure phase assemblage 1.	
Using reaction 1.	

Reaction 1.	

	  4.000e+01 moles of the following reaction have been added:

	                 Relative
	Reactant            moles

	K2SulfateO4          0.00100

	                 Relative
	Element             moles
	K                    0.00200
	O                    0.00400
	Sulfate              0.00100

-------------------------------Phase assemblage--------------------------------

                                                      Moles in assemblage
Phase               SI  log IAP  log K(T, P)   Initial       Final       Delta

redoxFe(OH)3(a)    0.00     4.89      4.89    2.639e-04   8.743e-04   6.104e-04

------------------------------Surface composition------------------------------

Diffuse Double Layer Surface-Complexation Model

H             
	 -2.469e-03  Surface charge, eq
	 -2.789e-02  sigma, C/m²
	 -3.286e-02  psi, V
	  1.279e+00  -F*psi/RT
	  3.594e+00  exp(-F*psi/RT)
	  3.417e+04  specific area, m²/g
	  8.542e+03  m² for   2.500e-01 g


H_a           
	  3.837e-04  moles
	                                   Mole                     Log
	Species               Moles    Fraction    Molality    Molality

	H_a-              3.837e-04       1.000   3.837e-04      -3.416
	H_aCa+            1.850e-08       0.000   1.850e-08      -7.733
	H_aH              8.507e-09       0.000   8.507e-09      -8.070

H_ab          
	  6.378e-05  moles
	                                   Mole                     Log
	Species               Moles    Fraction    Molality    Molality

	H_ab-2            6.376e-05       1.000   6.376e-05      -4.195
	H_abH-            1.821e-08       0.000   1.821e-08      -7.740
	H_abCa            9.723e-10       0.000   9.723e-10      -9.012
	H_abH2            4.038e-13       0.000   4.038e-13     -12.394

H_ad          
	  6.378e-05  moles
	                                   Mole                     Log
	Species               Moles    Fraction    Molality    Molality

	H_ad-2            6.068e-05       0.951   6.068e-05      -4.217
	H_adH-            2.944e-06       0.046   2.944e-06      -5.531
	H_adCa            1.571e-07       0.002   1.571e-07      -6.804
	H_adH2            6.527e-11       0.000   6.527e-11     -10.185

H_af          
	  6.378e-05  moles
	                                   Mole                     Log
	Species               Moles    Fraction    Molality    Molality

	H_afH-            6.327e-05       0.992   6.327e-05      -4.199
	H_afCa            3.010e-07       0.005   3.010e-07      -6.521
	H_af-2            2.115e-07       0.003   2.115e-07      -6.675
	H_afH2            1.403e-09       0.000   1.403e-09      -8.853

H_ah          
	  6.378e-05  moles
	                                   Mole                     Log
	Species               Moles    Fraction    Molality    Molality

	H_ahH-            6.378e-05       1.000   6.378e-05      -4.195
	H_ahH2            1.414e-09       0.000   1.414e-09      -8.849
	H_ahCa            5.396e-10       0.000   5.396e-10      -9.268
	H_ah-2            4.455e-11       0.000   4.455e-11     -10.351

H_b           
	  3.837e-04  moles
	                                   Mole                     Log
	Species               Moles    Fraction    Molality    Molality

	H_b-              3.834e-04       0.999   3.834e-04      -3.416
	H_bCa+            2.381e-07       0.001   2.381e-07      -6.623
	H_bH              1.095e-07       0.000   1.095e-07      -6.961

H_bc          
	  6.378e-05  moles
	                                   Mole                     Log
	Species               Moles    Fraction    Molality    Molality

	H_bc-2            6.338e-05       0.994   6.338e-05      -4.198
	H_bcH-            2.387e-07       0.004   2.387e-07      -6.622
	H_bcCa            1.641e-07       0.003   1.641e-07      -6.785
	H_bcH2            6.817e-11       0.000   6.817e-11     -10.166

H_be          
	  6.378e-05  moles
	                                   Mole                     Log
	Species               Moles    Fraction    Molality    Molality

	H_beH-            5.178e-05       0.812   5.178e-05      -4.286
	H_be-2            1.198e-05       0.188   1.198e-05      -4.922
	H_beH2            1.479e-08       0.000   1.479e-08      -7.830
	H_beCa            5.644e-09       0.000   5.644e-09      -8.248

H_bg          
	  6.378e-05  moles
	                                   Mole                     Log
	Species               Moles    Fraction    Molality    Molality

	H_bgH-            6.375e-05       1.000   6.375e-05      -4.196
	H_bgH2            1.821e-08       0.000   1.821e-08      -7.740
	H_bgCa            6.948e-09       0.000   6.949e-09      -8.158
	H_bg-2            3.081e-09       0.000   3.081e-09      -8.511

H_c           
	  3.837e-04  moles
	                                   Mole                     Log
	Species               Moles    Fraction    Molality    Molality

	H_c-              3.792e-04       0.988   3.792e-04      -3.421
	H_cCa+            3.105e-06       0.008   3.105e-06      -5.508
	H_cH              1.428e-06       0.004   1.428e-06      -5.845

H_cd          
	  6.378e-05  moles
	                                   Mole                     Log
	Species               Moles    Fraction    Molality    Molality

	H_cd-2            4.285e-05       0.672   4.285e-05      -4.368
	H_cdCa            1.884e-05       0.295   1.884e-05      -4.725
	H_cdH-            2.079e-06       0.033   2.079e-06      -5.682
	H_cdH2            7.827e-09       0.000   7.827e-09      -8.106

H_cf          
	  6.378e-05  moles
	                                   Mole                     Log
	Species               Moles    Fraction    Molality    Molality

	H_cfH-            6.324e-05       0.992   6.324e-05      -4.199
	H_cfH2            2.381e-07       0.004   2.381e-07      -6.623
	H_cf-2            2.114e-07       0.003   2.114e-07      -6.675
	H_cfCa            9.086e-08       0.001   9.086e-08      -7.042

H_ch          
	  6.378e-05  moles
	                                   Mole                     Log
	Species               Moles    Fraction    Molality    Molality

	H_chH-            6.345e-05       0.995   6.345e-05      -4.198
	H_chH2            2.389e-07       0.004   2.389e-07      -6.622
	H_chCa            9.117e-08       0.001   9.117e-08      -7.040
	H_ch-2            4.432e-11       0.000   4.432e-11     -10.353

H_d           
	  3.837e-04  moles
	                                   Mole                     Log
	Species               Moles    Fraction    Molality    Molality

	H_d-              3.325e-04       0.867   3.325e-04      -3.478
	H_dCa+            3.508e-05       0.091   3.508e-05      -4.455
	H_dH              1.613e-05       0.042   1.613e-05      -4.792

H_de          
	  6.378e-05  moles
	                                   Mole                     Log
	Species               Moles    Fraction    Molality    Molality

	H_deH-            4.913e-05       0.770   4.913e-05      -4.309
	H_de-2            1.136e-05       0.178   1.136e-05      -4.945
	H_deH2            2.383e-06       0.037   2.383e-06      -5.623
	H_deCa            9.093e-07       0.014   9.093e-07      -6.041

H_dg          
	  6.378e-05  moles
	                                   Mole                     Log
	Species               Moles    Fraction    Molality    Molality

	H_dgH-            5.977e-05       0.937   5.977e-05      -4.224
	H_dgH2            2.899e-06       0.045   2.900e-06      -5.538
	H_dgCa            1.106e-06       0.017   1.106e-06      -5.956
	H_dg-2            2.888e-09       0.000   2.888e-09      -8.539

H_e           
	  1.919e-04  moles
	                                   Mole                     Log
	Species               Moles    Fraction    Molality    Molality

	H_eH              1.558e-04       0.812   1.558e-04      -3.807
	H_e-              3.604e-05       0.188   3.604e-05      -4.443
	H_eCa+            5.495e-08       0.000   5.495e-08      -7.260

H_f           
	  1.919e-04  moles
	                                   Mole                     Log
	Species               Moles    Fraction    Molality    Molality

	H_fH              1.912e-04       0.996   1.912e-04      -3.719
	H_f-              6.392e-07       0.003   6.392e-07      -6.194
	H_fCa+            6.743e-08       0.000   6.743e-08      -7.171

H_g           
	  1.919e-04  moles
	                                   Mole                     Log
	Species               Moles    Fraction    Molality    Molality

	H_gH              1.918e-04       1.000   1.918e-04      -3.717
	H_gCa+            6.765e-08       0.000   6.766e-08      -7.170
	H_g-              9.270e-09       0.000   9.270e-09      -8.033

H_h           
	  1.919e-04  moles
	                                   Mole                     Log
	Species               Moles    Fraction    Molality    Molality

	H_hH              1.918e-04       1.000   1.918e-04      -3.717
	H_hCa+            6.766e-08       0.000   6.766e-08      -7.170
	H_h-              1.340e-10       0.000   1.340e-10      -9.873

Hfo           
	  1.919e-06  Surface charge, eq
	  1.983e-02  sigma, C/m²
	  2.411e-02  psi, V
	 -9.383e-01  -F*psi/RT
	  3.913e-01  exp(-F*psi/RT)
	  1.068e+04  specific area, m²/mol redoxFe(OH)3(a)
	  9.337e+00  m² for   8.743e-04 moles of redoxFe(OH)3(a)


Hfo_s         
	  4.371e-06  moles	[0.005 mol/(mol redoxFe(OH)3(a))]
	                                   Mole                     Log
	Species               Moles    Fraction    Molality    Molality

	Hfo_sOHCa+2       2.158e-06       0.494   2.158e-06      -5.666
	Hfo_sOH2+         1.201e-06       0.275   1.201e-06      -5.920
	Hfo_sOH           9.929e-07       0.227   9.929e-07      -6.003
	Hfo_sO-           1.880e-08       0.004   1.880e-08      -7.726

Hfo_w         
	  1.749e-04  moles	[0.2 mol/(mol redoxFe(OH)3(a))]
	                                   Mole                     Log
	Species               Moles    Fraction    Molality    Molality

	Hfo_wOH2+         7.023e-05       0.402   7.023e-05      -4.153
	Hfo_wOH           5.804e-05       0.332   5.804e-05      -4.236
	Hfo_wOHSulfateO4-2   2.804e-05       0.160   2.804e-05      -4.552
	Hfo_wSulfateO4-   1.704e-05       0.097   1.704e-05      -4.768
	Hfo_wO-           1.099e-06       0.006   1.099e-06      -5.959
	Hfo_wOMg+         3.698e-07       0.002   3.698e-07      -6.432
	Hfo_wOCa+         3.077e-08       0.000   3.077e-08      -7.512

-----------------------------Solution composition------------------------------

	Elements           Molality       Moles

	Al                1.001e-05   1.001e-05
	Br                4.123e-06   4.123e-06
	C                 4.473e-03   4.473e-03
	Ca                7.717e-04   7.717e-04
	Cl                1.731e-03   1.731e-03
	Ferric            5.534e-08   5.534e-08
	K                 8.130e-02   8.130e-02
	Mg                5.505e-04   5.505e-04
	Na                1.015e-02   1.015e-02
	Nitrate           4.924e-03   4.924e-03
	Sulfate           4.166e-02   4.166e-02

----------------------------Description of solution----------------------------

                                       pH  =   6.800      Charge balance
                                       pe  =  -6.279      Adjusted to redox equilibrium
      Specific Conductance (µS/cm,  25°C)  = 9396
                        Activity of water  =   0.998
                 Ionic strength (mol/kgw)  =   1.207e-01
                       Mass of water (kg)  =   1.000e+00
                 Total alkalinity (eq/kg)  =   3.567e-03
                       Total CO2 (mol/kg)  =   4.473e-03
                         Temperature (°C)  =  25.00
                  Electrical balance (eq)  =   5.743e-04
 Percent error, 100*(Cat-|An|)/(Cat+|An|)  =   0.33
                               Iterations  =  19
                                  Total H  = 1.110158e+02
                                  Total O  = 5.569997e+01

----------------------------Distribution of species----------------------------

                                               Log       Log       Log    mole V
   Species          Molality    Activity  Molality  Activity     Gamma   cm³/mol

   H+              1.940e-07   1.586e-07    -6.712    -6.800    -0.087      0.00
   OH-             8.430e-08   6.298e-08    -7.074    -7.201    -0.127     (0)  
   H2O             5.551e+01   9.976e-01     1.744    -0.001     0.000     18.07
Al            1.001e-05
   Al(OH)4-        8.627e-06   6.650e-06    -5.064    -5.177    -0.113     (0)  
   Al(OH)2+        7.850e-07   6.051e-07    -6.105    -6.218    -0.113     (0)  
   Al(OH)3         5.455e-07   5.609e-07    -6.263    -6.251     0.012     (0)  
   AlOH+2          3.477e-08   1.227e-08    -7.459    -7.911    -0.452     (0)  
   AlSulfateO4+    9.665e-09   7.450e-09    -8.015    -8.128    -0.113     (0)  
   Al(SulfateO4)2-   3.666e-09   2.826e-09    -8.436    -8.549    -0.113     (0)  
   Al+3            1.202e-09   1.964e-10    -8.920    -9.707    -0.787     (0)  
   AlHSulfateO4+2   2.968e-16   1.048e-16   -15.528   -15.980    -0.452     (0)  
Br            4.123e-06
   Br-             4.123e-06   3.042e-06    -5.385    -5.517    -0.132     (0)  
C(4)          4.473e-03
   HCO3-           3.503e-03   2.721e-03    -2.456    -2.565    -0.110     (0)  
   CO2             9.459e-04   9.726e-04    -3.024    -3.012     0.012     (0)  
   NaHCO3          1.098e-05   1.129e-05    -4.959    -4.947     0.012     (0)  
   CaHCO3+         6.797e-06   5.281e-06    -5.168    -5.277    -0.110     (0)  
   MgHCO3+         4.246e-06   3.273e-06    -5.372    -5.485    -0.113     (0)  
   CO3-2           2.209e-06   8.047e-07    -5.656    -6.094    -0.439     (0)  
   CaCO3           2.000e-07   2.056e-07    -6.699    -6.687     0.012     (0)  
   NaCO3-          1.434e-07   1.106e-07    -6.843    -6.956    -0.113     (0)  
   MgCO3           7.677e-08   7.893e-08    -7.115    -7.103     0.012     (0)  
Ca            7.717e-04
   Ca+2            4.107e-04   1.521e-04    -3.386    -3.818    -0.431     (0)  
   CaSulfateO4     3.540e-04   3.640e-04    -3.451    -3.439     0.012     (0)  
   CaHCO3+         6.797e-06   5.281e-06    -5.168    -5.277    -0.110     (0)  
   CaCO3           2.000e-07   2.056e-07    -6.699    -6.687     0.012     (0)  
   CaHSulfateO4+   4.387e-10   3.382e-10    -9.358    -9.471    -0.113     (0)  
   CaOH+           2.060e-10   1.588e-10    -9.686    -9.799    -0.113     (0)  
Cl            1.731e-03
   Cl-             1.731e-03   1.299e-03    -2.762    -2.886    -0.125     (0)  
   FerricCl+2      3.472e-17   1.226e-17   -16.459   -16.912    -0.452     (0)  
   FerricCl2+      9.226e-20   7.112e-20   -19.035   -19.148    -0.113     (0)  
   FerricCl3       8.983e-24   9.237e-24   -23.047   -23.034     0.012     (0)  
Ferric        5.534e-08
   Ferric(OH)2+    3.430e-08   2.644e-08    -7.465    -7.578    -0.113     (0)  
   Ferric(OH)3     2.084e-08   2.143e-08    -7.681    -7.669     0.012     (0)  
   Ferric(OH)4-    1.595e-10   1.229e-10    -9.797    -9.910    -0.113     (0)  
   FerricOH+2      3.596e-11   1.269e-11   -10.444   -10.896    -0.452     (0)  
   FerricSulfateO4+   5.333e-14   4.110e-14   -13.273   -13.386    -0.113     (0)  
   Ferric(SulfateO4)2-   1.399e-14   1.079e-14   -13.854   -13.967    -0.113     (0)  
   Ferric+3        1.913e-15   3.125e-16   -14.718   -15.505    -0.787     (0)  
   FerricCl+2      3.472e-17   1.226e-17   -16.459   -16.912    -0.452     (0)  
   Ferric2(OH)2+4   2.792e-19   4.337e-21   -18.554   -20.363    -1.809     (0)  
   FerricCl2+      9.226e-20   7.112e-20   -19.035   -19.148    -0.113     (0)  
   FerricHSulfateO4+2   4.945e-20   1.746e-20   -19.306   -19.758    -0.452     (0)  
   Ferric3(OH)4+5   1.606e-23   2.396e-26   -22.794   -25.621    -2.826     (0)  
   FerricCl3       8.983e-24   9.237e-24   -23.047   -23.034     0.012     (0)  
H(0)          1.251e-04
   H2              6.256e-05   6.433e-05    -4.204    -4.192     0.012     (0)  
K             8.130e-02
   K+              7.514e-02   5.637e-02    -1.124    -1.249    -0.125     (0)  
   KSulfateO4-     6.163e-03   4.751e-03    -2.210    -2.323    -0.113     (0)  
   KOH             1.196e-09   1.230e-09    -8.922    -8.910     0.012     (0)  
Mg            5.505e-04
   MgSulfateO4     2.811e-04   2.890e-04    -3.551    -3.539     0.012     (0)  
   Mg+2            2.650e-04   1.028e-04    -3.577    -3.988    -0.411     (0)  
   MgHCO3+         4.246e-06   3.273e-06    -5.372    -5.485    -0.113     (0)  
   MgCO3           7.677e-08   7.893e-08    -7.115    -7.103     0.012     (0)  
   MgOH+           3.046e-09   2.348e-09    -8.516    -8.629    -0.113     (0)  
Na            1.015e-02
   Na+             9.563e-03   7.379e-03    -2.019    -2.132    -0.113     (0)  
   NaSulfateO4-    5.755e-04   4.436e-04    -3.240    -3.353    -0.113     (0)  
   NaHCO3          1.098e-05   1.129e-05    -4.959    -4.947     0.012     (0)  
   NaCO3-          1.434e-07   1.106e-07    -6.843    -6.956    -0.113     (0)  
   NaOH            2.983e-10   3.067e-10    -9.525    -9.513     0.012     (0)  
Nitrate       4.924e-03
   NitrateO3-      4.924e-03   3.795e-03    -2.308    -2.421    -0.113     (0)  
O(0)          0.000e+00
   O2              0.000e+00   0.000e+00   -84.011   -83.999     0.012     (0)  
Sulfate       4.166e-02
   SulfateO4-2     3.429e-02   1.199e-02    -1.465    -1.921    -0.456     (0)  
   KSulfateO4-     6.163e-03   4.751e-03    -2.210    -2.323    -0.113     (0)  
   NaSulfateO4-    5.755e-04   4.436e-04    -3.240    -3.353    -0.113     (0)  
   CaSulfateO4     3.540e-04   3.640e-04    -3.451    -3.439     0.012     (0)  
   MgSulfateO4     2.811e-04   2.890e-04    -3.551    -3.539     0.012     (0)  
   HSulfateO4-     2.399e-07   1.849e-07    -6.620    -6.733    -0.113     (0)  
   AlSulfateO4+    9.665e-09   7.450e-09    -8.015    -8.128    -0.113     (0)  
   Al(SulfateO4)2-   3.666e-09   2.826e-09    -8.436    -8.549    -0.113     (0)  
   CaHSulfateO4+   4.387e-10   3.382e-10    -9.358    -9.471    -0.113     (0)  
   FerricSulfateO4+   5.333e-14   4.110e-14   -13.273   -13.386    -0.113     (0)  
   Ferric(SulfateO4)2-   1.399e-14   1.079e-14   -13.854   -13.967    -0.113     (0)  
   AlHSulfateO4+2   2.968e-16   1.048e-16   -15.528   -15.980    -0.452     (0)  
   FerricHSulfateO4+2   4.945e-20   1.746e-20   -19.306   -19.758    -0.452     (0)  

------------------------------Saturation indices-------------------------------

  Phase               SI** log IAP   log K(298 K,   1 atm)

  Al(OH)3(a)       -0.11     10.69   10.80  Al(OH)3
  FixpH            -6.80     -6.80    0.00  H+
  Gibbsite          2.58     10.69    8.11  Al(OH)3
  H2(g)            -1.04     -4.19   -3.15  H2
  H2O(g)           -1.51     -0.00    1.51  H2O
  Halite           -6.60     -5.02    1.58  NaCl
  redoxAlunite      7.98      6.58   -1.40  KAl3(SulfateO4)2(OH)6
  redoxAnhydrite   -1.38     -5.74   -4.36  CaSulfateO4
  redoxAragonite   -1.58     -9.91   -8.34  CaCO3
  redoxCalcite     -1.43     -9.91   -8.48  CaCO3
  redoxCO2(g)      -1.54     -3.01   -1.47  CO2
  redoxDolomite    -2.90    -19.99  -17.09  CaMg(CO3)2
  redoxFe(OH)3(a)   0.00      4.89    4.89  Ferric(OH)3
  redoxGoethite     5.89      4.89   -1.00  FerricOOH
  redoxGypsum      -1.16     -5.74   -4.58  CaSulfateO4:2H2O
  redoxHematite    13.79      9.79   -4.01  Ferric2O3
  redoxJarosite-K  -1.60    -10.81   -9.21  KFerric3(SulfateO4)2(OH)6

**For a gas, SI = log10(fugacity). Fugacity = pressure * phi / 1 atm.
  For ideal gases, phi = 1.

------------------
End of simulation.
------------------

------------------------------------
Reading input data for simulation 3.
------------------------------------

----------------------------------
End of Run after 0.088467 Seconds.
----------------------------------

