   Input file: vanD_peat_salty_exchange.phrq
  Output file: vanD_peat_salty_exchange.phrq.out
Database file: ../database/redox.dat

------------------
Reading data base.
------------------

	SOLUTION_MASTER_SPECIES
	SOLUTION_SPECIES
	PHASES
	EXCHANGE_MASTER_SPECIES
	EXCHANGE_SPECIES
	SURFACE_MASTER_SPECIES
	SURFACE_SPECIES
	RATES
	END
------------------------------------
Reading input data for simulation 1.
------------------------------------

	DATABASE ../database/redox.dat
	TITLE simulate soil solution
	CALCULATE_VALUES
	SC_T25
	start
	10 sc25 = SC/(1+0.021*(temperature-25))
	20 SAVE sc25
	end
	SOLUTION 1
	units umol/L   #3.774L total volume
	pH    7  charge
	temperature 	 15
	water         1.887   #default is 1 kg
	C(4)        1.0 redoxCO2(g) -3.4  # in equilibrium with CO2 in atmosphere, 400 pm
	P           81.88
	Amm         344
	Na          11950
	Ca          1520
	Cl          12500 
	Sulfate     380 
	K           1.3
	Mg          1810
	C(4)        5.37  
	Nitrate        0
	Ferric       0.61
	Alanine      505
	Cysteine     505
	Glycine      505
	Glutamine    505
	Threonine    505
	Tyrosine     505
	  SAVE SOLUTION 1
	END
-----
TITLE
-----

 simulate soil solution

-------------------------------------------
Beginning of initial solution calculations.
-------------------------------------------

Initial solution 1.	

-----------------------------Solution composition------------------------------

	Elements           Molality       Moles

	Alanine           5.056e-04   9.541e-04
	Amm               3.444e-04   6.499e-04
	C(4)              5.377e-06   1.015e-05
	Ca                1.522e-03   2.872e-03
	Cl                1.252e-02   2.362e-02
	Cysteine          5.056e-04   9.541e-04
	Ferric            6.108e-07   1.152e-06
	Glutamine         5.056e-04   9.541e-04
	Glycine           5.056e-04   9.541e-04
	K                 1.302e-06   2.456e-06
	Mg                1.812e-03   3.420e-03
	Na                1.196e-02   2.258e-02
	P                 8.198e-05   1.547e-04
	Sulfate           3.805e-04   7.179e-04
	Threonine         5.056e-04   9.541e-04
	Tyrosine          5.056e-04   9.541e-04

----------------------------Description of solution----------------------------

                                       pH  =   7.116      Charge balance
                                       pe  =   4.000    
      Specific Conductance (µS/cm,  15°C)  = 1380
                        Activity of water  =   0.999
                 Ionic strength (mol/kgw)  =   2.494e-02
                       Mass of water (kg)  =   1.887e+00
                 Total alkalinity (eq/kg)  =   3.093e-03
                       Total CO2 (mol/kg)  =   5.377e-06
                         Temperature (°C)  =  15.00
                  Electrical balance (eq)  =   7.921e-16
 Percent error, 100*(Cat-|An|)/(Cat+|An|)  =   0.00
                               Iterations  =   9
                                  Total H  = 2.094833e+02
                                  Total O  = 1.047438e+02

----------------------------Distribution of species----------------------------

                                               Log       Log       Log    mole V
   Species          Molality    Activity  Molality  Activity     Gamma   cm³/mol

   H+              8.667e-08   7.652e-08    -7.062    -7.116    -0.054      0.00
   OH-             6.871e-08   5.887e-08    -7.163    -7.230    -0.067     (0)  
   H2O             5.551e+01   9.995e-01     1.744    -0.000     0.000     18.03
Alanine       5.056e-04
   Alanine-2       5.056e-04   2.787e-04    -3.296    -3.555    -0.259     (0)  
   H2(Alanine)     1.203e-08   1.210e-08    -7.920    -7.917     0.002     (0)  
   H(Alanine)-     5.541e-09   4.774e-09    -8.256    -8.321    -0.065     (0)  
Amm           3.444e-04
   AmmH4+          3.426e-04   2.915e-04    -3.465    -3.535    -0.070     (0)  
   AmmH3           1.038e-06   1.044e-06    -5.984    -5.981     0.002     (0)  
   AmmH4SulfateO4-   7.595e-07   6.545e-07    -6.119    -6.184    -0.065     (0)  
C(4)          5.377e-06
   HCO3-           4.480e-06   3.884e-06    -5.349    -5.411    -0.062     (0)  
   CO2             7.756e-07   7.800e-07    -6.110    -6.108     0.002     (0)  
   MgHCO3+         5.167e-08   4.452e-08    -7.287    -7.351    -0.065     (0)  
   CaHCO3+         3.977e-08   3.448e-08    -7.400    -7.462    -0.062     (0)  
   NaHCO3          2.241e-08   2.254e-08    -7.649    -7.647     0.002     (0)  
   CO3-2           3.349e-09   1.893e-09    -8.475    -8.723    -0.248     (0)  
   CaCO3           2.263e-09   2.276e-09    -8.645    -8.643     0.002     (0)  
   MgCO3           1.560e-09   1.569e-09    -8.807    -8.804     0.002     (0)  
   NaCO3-          2.505e-10   2.159e-10    -9.601    -9.666    -0.065     (0)  
Ca            1.522e-03
   Ca+2            1.488e-03   8.409e-04    -2.827    -3.075    -0.248     (0)  
   CaSulfateO4     2.639e-05   2.655e-05    -4.578    -4.576     0.002     (0)  
   CaHPO4          6.946e-06   6.986e-06    -5.158    -5.156     0.002     (0)  
   CaH2PO4+        4.913e-07   4.233e-07    -6.309    -6.373    -0.065     (0)  
   CaPO4-          2.063e-07   1.777e-07    -6.686    -6.750    -0.065     (0)  
   CaHCO3+         3.977e-08   3.448e-08    -7.400    -7.462    -0.062     (0)  
   CaCO3           2.263e-09   2.276e-09    -8.645    -8.643     0.002     (0)  
   CaOH+           2.115e-09   1.823e-09    -8.675    -8.739    -0.065     (0)  
   CaHSulfateO4+   1.235e-11   1.064e-11   -10.908   -10.973    -0.065     (0)  
Cl            1.252e-02
   Cl-             1.252e-02   1.073e-02    -1.903    -1.969    -0.067     (0)  
   FerricCl+2      8.635e-16   4.760e-16   -15.064   -15.322    -0.259     (0)  
   FerricCl2+      3.676e-17   3.168e-17   -16.435   -16.499    -0.065     (0)  
   FerricCl3       3.380e-20   3.400e-20   -19.471   -19.469     0.002     (0)  
Cysteine      5.056e-04
   Cysteine-2      5.055e-04   2.786e-04    -3.296    -3.555    -0.259     (0)  
   H2(Cysteine)    9.776e-08   9.832e-08    -7.010    -7.007     0.002     (0)  
   H(Cysteine)-    1.269e-09   1.094e-09    -8.896    -8.961    -0.065     (0)  
Ferric        6.108e-07
   Ferric(OH)2+    3.169e-07   2.731e-07    -6.499    -6.564    -0.065     (0)  
   Ferric(OH)3     2.910e-07   2.927e-07    -6.536    -6.534     0.002     (0)  
   Ferric(OH)4-    2.669e-09   2.300e-09    -8.574    -8.638    -0.065     (0)  
   FerricOH+2      1.696e-10   9.348e-11    -9.771   -10.029    -0.259     (0)  
   FerricH2PO4+2   2.390e-14   1.317e-14   -13.622   -13.880    -0.259     (0)  
   FerricHPO4+     8.354e-15   7.198e-15   -14.078   -14.143    -0.065     (0)  
   Ferric+3        6.254e-15   2.039e-15   -14.204   -14.691    -0.487     (0)  
   FerricSulfateO4+   3.596e-15   3.098e-15   -14.444   -14.509    -0.065     (0)  
   FerricCl+2      8.635e-16   4.760e-16   -15.064   -15.322    -0.259     (0)  
   FerricCl2+      3.676e-17   3.168e-17   -16.435   -16.499    -0.065     (0)  
   Ferric(SulfateO4)2-   1.317e-17   1.134e-17   -16.881   -16.945    -0.065     (0)  
   Ferric2(OH)2+4   3.908e-18   3.607e-19   -17.408   -18.443    -1.035     (0)  
   FerricCl3       3.380e-20   3.400e-20   -19.471   -19.469     0.002     (0)  
   Ferric3(OH)4+5   2.213e-21   5.347e-23   -20.655   -22.272    -1.617     (0)  
   FerricHSulfateO4+2   1.175e-21   6.477e-22   -20.930   -21.189    -0.259     (0)  
Glutamine     5.056e-04
   Glutamine-2     5.056e-04   2.787e-04    -3.296    -3.555    -0.259     (0)  
   H(Glutamine)-   3.661e-09   3.154e-09    -8.436    -8.501    -0.065     (0)  
   H2(Glutamine)   2.189e-09   2.202e-09    -8.660    -8.657     0.002     (0)  
Glycine       5.056e-04
   Glycine-        5.056e-04   4.357e-04    -3.296    -3.361    -0.065     (0)  
   H2(Glycine)+    1.179e-08   1.016e-08    -7.929    -7.993    -0.065     (0)  
   H(Glycine)      7.252e-09   7.293e-09    -8.140    -8.137     0.002     (0)  
H(0)          9.138e-26
   H2              4.569e-26   4.596e-26   -25.340   -25.338     0.002     (0)  
K             1.302e-06
   K+              1.300e-06   1.115e-06    -5.886    -5.953    -0.067     (0)  
   KSulfateO4-     1.323e-09   1.140e-09    -8.878    -8.943    -0.065     (0)  
   KHPO4-          4.639e-11   3.997e-11   -10.334   -10.398    -0.065     (0)  
   KOH             5.021e-14   5.050e-14   -13.299   -13.297     0.002     (0)  
Mg            1.812e-03
   Mg+2            1.768e-03   1.013e-03    -2.752    -2.994    -0.242     (0)  
   MgSulfateO4     3.153e-05   3.171e-05    -4.501    -4.499     0.002     (0)  
   MgHPO4          1.132e-05   1.138e-05    -4.946    -4.944     0.002     (0)  
   MgH2PO4+        7.538e-07   6.495e-07    -6.123    -6.187    -0.065     (0)  
   MgPO4-          3.352e-07   2.889e-07    -6.475    -6.539    -0.065     (0)  
   MgHCO3+         5.167e-08   4.452e-08    -7.287    -7.351    -0.065     (0)  
   MgOH+           2.191e-08   1.887e-08    -7.659    -7.724    -0.065     (0)  
   MgCO3           1.560e-09   1.569e-09    -8.807    -8.804     0.002     (0)  
Na            1.196e-02
   Na+             1.195e-02   1.032e-02    -1.922    -1.986    -0.064     (0)  
   NaSulfateO4-    9.798e-06   8.443e-06    -5.009    -5.074    -0.065     (0)  
   NaHPO4-         4.294e-07   3.700e-07    -6.367    -6.432    -0.065     (0)  
   NaHCO3          2.241e-08   2.254e-08    -7.649    -7.647     0.002     (0)  
   NaOH            8.855e-10   8.906e-10    -9.053    -9.050     0.002     (0)  
   NaCO3-          2.505e-10   2.159e-10    -9.601    -9.666    -0.065     (0)  
O(0)          0.000e+00
   O2              0.000e+00   0.000e+00   -45.047   -45.044     0.002     (0)  
P             8.198e-05
   HPO4-2          3.366e-05   1.838e-05    -4.473    -4.736    -0.263     (0)  
   H2PO4-          2.784e-05   2.401e-05    -4.555    -4.620    -0.064     (0)  
   MgHPO4          1.132e-05   1.138e-05    -4.946    -4.944     0.002     (0)  
   CaHPO4          6.946e-06   6.986e-06    -5.158    -5.156     0.002     (0)  
   MgH2PO4+        7.538e-07   6.495e-07    -6.123    -6.187    -0.065     (0)  
   CaH2PO4+        4.913e-07   4.233e-07    -6.309    -6.373    -0.065     (0)  
   NaHPO4-         4.294e-07   3.700e-07    -6.367    -6.432    -0.065     (0)  
   MgPO4-          3.352e-07   2.889e-07    -6.475    -6.539    -0.065     (0)  
   CaPO4-          2.063e-07   1.777e-07    -6.686    -6.750    -0.065     (0)  
   PO4-3           3.435e-10   8.807e-11    -9.464   -10.055    -0.591     (0)  
   KHPO4-          4.639e-11   3.997e-11   -10.334   -10.398    -0.065     (0)  
   FerricH2PO4+2   2.390e-14   1.317e-14   -13.622   -13.880    -0.259     (0)  
   FerricHPO4+     8.354e-15   7.198e-15   -14.078   -14.143    -0.065     (0)  
Sulfate       3.805e-04
   SulfateO4-2     3.120e-04   1.743e-04    -3.506    -3.759    -0.253     (0)  
   MgSulfateO4     3.153e-05   3.171e-05    -4.501    -4.499     0.002     (0)  
   CaSulfateO4     2.639e-05   2.655e-05    -4.578    -4.576     0.002     (0)  
   NaSulfateO4-    9.798e-06   8.443e-06    -5.009    -5.074    -0.065     (0)  
   AmmH4SulfateO4-   7.595e-07   6.545e-07    -6.119    -6.184    -0.065     (0)  
   KSulfateO4-     1.323e-09   1.140e-09    -8.878    -8.943    -0.065     (0)  
   HSulfateO4-     1.221e-09   1.052e-09    -8.913    -8.978    -0.065     (0)  
   CaHSulfateO4+   1.235e-11   1.064e-11   -10.908   -10.973    -0.065     (0)  
   FerricSulfateO4+   3.596e-15   3.098e-15   -14.444   -14.509    -0.065     (0)  
   Ferric(SulfateO4)2-   1.317e-17   1.134e-17   -16.881   -16.945    -0.065     (0)  
   FerricHSulfateO4+2   1.175e-21   6.477e-22   -20.930   -21.189    -0.259     (0)  
Threonine     5.056e-04
   Threonine-2     5.056e-04   2.787e-04    -3.296    -3.555    -0.259     (0)  
   H(Threonine)-   3.496e-09   3.012e-09    -8.456    -8.521    -0.065     (0)  
   H2(Threonine)   2.139e-09   2.151e-09    -8.670    -8.667     0.002     (0)  
Tyrosine      5.056e-04
   Tyrosine-2      5.056e-04   2.787e-04    -3.296    -3.555    -0.259     (0)  
   H(Tyrosine)-    3.923e-09   3.380e-09    -8.406    -8.471    -0.065     (0)  
   H2(Tyrosine)    2.090e-09   2.102e-09    -8.680    -8.677     0.002     (0)  

------------------------------Saturation indices-------------------------------

  Phase               SI** log IAP   log K(288 K,   1 atm)

  FixpH            -7.12     -7.12    0.00  H+
  H2(g)           -22.23    -25.34   -3.11  H2
  H2O(g)           -1.78     -0.00    1.78  H2O
  Halite           -5.51     -3.96    1.56  NaCl
  Hydroxyapatite    1.38     -1.12   -2.50  Ca5(PO4)3OH
  redoxAnhydrite   -2.50     -6.83   -4.34  CaSulfateO4
  redoxAragonite   -3.52    -11.80   -8.28  CaCO3
  redoxCalcite     -3.37    -11.80   -8.43  CaCO3
  redoxCO2(g)      -4.77     -6.11   -1.34  CO2
  redoxDolomite    -6.67    -23.52  -16.85  CaMg(CO3)2
  redoxFe(OH)3(a)   1.77      6.66    4.89  Ferric(OH)3
  redoxGoethite     7.29      6.66   -0.63  FerricOOH
  redoxGypsum      -2.25     -6.83   -4.58  CaSulfateO4:2H2O
  redoxHematite    16.54     13.32   -3.22  Ferric2O3
  redoxJarosite-K  -6.43    -14.85   -8.41  KFerric3(SulfateO4)2(OH)6
  redoxNH3(g)      -7.96     -5.98    1.98  AmmH3

**For a gas, SI = log10(fugacity). Fugacity = pressure * phi / 1 atm.
  For ideal gases, phi = 1.

------------------
End of simulation.
------------------

------------------------------------
Reading input data for simulation 2.
------------------------------------

	 GAS_PHASE 1 
	  fixed_pressure  1.0
	  temperature 	 15
	  redoxCO2(g) 0.0
	  SAVE GAS_PHASE 1
	END
------------------
End of simulation.
------------------

------------------------------------
Reading input data for simulation 3.
------------------------------------

	USE SOLUTION 1
	USE GAS_PHASE 1
	EXCHANGE_MASTER_SPECIES
	  X  X-
	EXCHANGE_SPECIES
	 X- = X-
	 log_k 0     #semicolon is logical end of line
	 X- + AmmH4+ = AmmH4X
	  log_k  0.25   #define the half-reactions of ion change
	 2X- + Ca+2  = CaX2
	    log_k  0.4    $logK's relative 
	 2X- + Mg+2  = MgX2
	    log_k  0.5
	 X- + Na+  = NaX
	       log_k  0.0
	EXCHANGE 1   #exchanger in equilibirium 
	  X    0.2   #exchanger amount in mol
	  equilibrate with solution 1
	  exchange_gammas   true
	EQUILIBRIUM_PHASES 1
	  redoxFe(OH)3(a) 0.0 0.02
	SURFACE 1
	Hfo_wOH 2.4e-3  600  0.02
	Hfo_sOH 6e-6
	donnan 1e-12
	  H_a   3.837E-02  3.417E+04     100  ##gram of SOM for exchange
	  H_b   3.837E-02
	 H_c   3.837E-02
	 H_d  3.837E-02
	  H_e   1.919E-02
	 H_f   1.919E-02
	 H_g  1.919E-02
	 H_h  1.919E-02
	  H_ab  6.378E-02
	 H_ad  6.378E-02
	 H_af  6.378E-02
	 H_ah  6.378E-02
	  H_bc  6.378E-02
	 H_be  6.378E-02
	 H_bg  6.378E-05
	 H_cd  6.378E-05
	  H_cf  6.378E-02
	 H_ch  6.378E-02
	 H_de  6.378E-05
	 H_dg  6.378E-05
	  equilibrate with solution 1
	REACTION 1
	CaCl2  0.0003064  #each step 0.001 mol
	NaCl       0.0055147
	MgSulfate   0.00049
	K2Sulfate    0.0001225
	K2CO3        0.0003676
	 15 in 15 steps
	SELECTED_OUTPUT
	reset false
	file vanD_peat_salt_exch_c.txt
	USER_PUNCH
	start
	heading pH  Na  K  Ca  Mg  PO4  Cl  SO4 NH4 HCO3 sc
	10 PUNCH -la("H+")
	20 PUNCH tot("Na")  tot("K")  tot("Ca")  tot("Mg") tot("P")  tot("Cl")  tot("Sulfate") tot ("Amm")  
	30 PUNCH mol("HCO3-")+mol("CaHCO3+")+mol("MgHCO3+")+mol("NaHCO3")
	40 PUNCH CALC_VALUE ("SC_T25")
	end
	END
-------------------------------------------------------
Beginning of initial exchange-composition calculations.
-------------------------------------------------------

Exchange 1.	

X                2.000e-01 mol

	                               Equiv-    Equivalent      Log 
	Species             Moles      alents      Fraction     Gamma

	MgX2              5.194e-02   1.039e-01   5.194e-01     0.000
	CaX2              3.424e-02   6.849e-02   3.424e-01     0.000
	NaX               2.628e-02   2.628e-02   1.314e-01     0.000
	AmmH4X            1.320e-03   1.320e-03   6.600e-03     0.000
	KX                1.762e-05   1.762e-05   8.812e-05    -0.067
	HX                2.207e-06   2.207e-06   1.104e-05    -0.054

------------------------------------------------------
Beginning of initial surface-composition calculations.
------------------------------------------------------

Surface 1.	

Diffuse Double Layer Surface-Complexation Model

H             
	 -1.030e-11  Surface + diffuse layer charge, eq
	 -7.491e-01  Surface charge, eq
	 -2.115e-02  sigma, C/m²
	 -4.835e-02  psi, V
	  1.947e+00  -F*psi/RT
	  7.011e+00  exp(-F*psi/RT)
	  3.417e+04  specific area, m²/g
	  3.417e+06  m² for   1.000e+02 g

	Water in diffuse layer: 3.417e-03 kg, 100.0% of total DDL-water.

	Total moles in diffuse layer (excluding water), Donnan calculation.
	Donnan Layer potential, psi_DL = -1.293e-01 V.
	Boltzmann factor, exp(-psi_DL * F / RT) = 1.825e+02 (= c_DL / c_free if z is +1).

	Element       	     Moles
	Alanine       	  9.3056e-11
	Amm           	  2.1371e-04
	C             	  5.9856e-08
	Ca            	  1.6939e-01
	Cl            	  2.3428e-07
	Cysteine      	  3.8590e-10
	Ferric        	  2.1814e-07
	Glutamine     	  5.9400e-11
	Glycine       	  1.6841e-08
	H             	  8.5702e-04
	K             	  8.1100e-07
	Mg            	  2.0132e-01
	Na            	  7.4564e-03
	O             	  4.7605e-06
	P             	  8.3959e-07
	Sulfate       	  1.9816e-07
	Threonine     	  5.9227e-11
	Tyrosine      	  5.9068e-11

H_a           
	  3.837e-02  moles
	                                   Mole                     Log
	Species               Moles    Fraction    Molality    Molality

	H_a-              3.829e-02       0.998   2.029e-02      -1.693
	H_aCa+            3.885e-05       0.001   2.059e-05      -4.686
	H_aMg+            3.718e-05       0.001   1.971e-05      -4.705
	H_aH              7.993e-07       0.000   4.236e-07      -6.373

H_ab          
	  6.378e-02  moles
	                                   Mole                     Log
	Species               Moles    Fraction    Molality    Molality

	H_ab-2            6.373e-02       0.999   3.377e-02      -1.471
	H_abCa            2.045e-05       0.000   1.084e-05      -4.965
	H_abH-            1.714e-05       0.000   9.081e-06      -5.042
	H_abMg            1.554e-05       0.000   8.237e-06      -5.084
	H_abH2            3.577e-10       0.000   1.895e-10      -9.722

H_ad          
	  6.378e-02  moles
	                                   Mole                     Log
	Species               Moles    Fraction    Molality    Molality

	H_ad-2            5.587e-02       0.876   2.961e-02      -1.529
	H_adCa            3.044e-03       0.048   1.613e-03      -2.792
	H_adH-            2.551e-03       0.040   1.352e-03      -2.869
	H_adMg            2.314e-03       0.036   1.226e-03      -2.911
	H_adH2            5.325e-08       0.000   2.822e-08      -7.549

H_af          
	  6.378e-02  moles
	                                   Mole                     Log
	Species               Moles    Fraction    Molality    Molality

	H_afH-            5.746e-02       0.901   3.045e-02      -1.516
	H_afCa            6.110e-03       0.096   3.238e-03      -2.490
	H_af-2            2.041e-04       0.003   1.081e-04      -3.966
	H_afMg            7.889e-06       0.000   4.181e-06      -5.379
	H_afH2            1.199e-06       0.000   6.355e-07      -6.197

H_ah          
	  6.378e-02  moles
	                                   Mole                     Log
	Species               Moles    Fraction    Molality    Molality

	H_ahH-            6.376e-02       1.000   3.379e-02      -1.471
	H_ahCa            1.206e-05       0.000   6.390e-06      -5.195
	H_ahMg            8.754e-06       0.000   4.639e-06      -5.334
	H_ahH2            1.331e-06       0.000   7.052e-07      -6.152
	H_ah-2            4.731e-08       0.000   2.507e-08      -7.601

H_b           
	  3.837e-02  moles
	                                   Mole                     Log
	Species               Moles    Fraction    Molality    Molality

	H_b-              3.740e-02       0.975   1.982e-02      -1.703
	H_bCa+            4.889e-04       0.013   2.591e-04      -3.587
	H_bMg+            4.679e-04       0.012   2.480e-04      -3.606
	H_bH              1.006e-05       0.000   5.330e-06      -5.273

H_bc          
	  6.378e-02  moles
	                                   Mole                     Log
	Species               Moles    Fraction    Molality    Molality

	H_bc-2            5.801e-02       0.910   3.074e-02      -1.512
	H_bcCa            3.161e-03       0.050   1.675e-03      -2.776
	H_bcMg            2.403e-03       0.038   1.273e-03      -2.895
	H_bcH-            2.056e-04       0.003   1.090e-04      -3.963
	H_bcH2            5.529e-08       0.000   2.930e-08      -7.533

H_be          
	  6.378e-02  moles
	                                   Mole                     Log
	Species               Moles    Fraction    Molality    Molality

	H_beH-            5.102e-02       0.800   2.704e-02      -1.568
	H_be-2            1.254e-02       0.197   6.643e-03      -2.178
	H_beCa            1.243e-04       0.002   6.587e-05      -4.181
	H_beMg            9.024e-05       0.001   4.782e-05      -4.320
	H_beH2            1.372e-05       0.000   7.270e-06      -5.138

H_bg          
	  6.378e-05  moles
	                                   Mole                     Log
	Species               Moles    Fraction    Molality    Molality

	H_bgH-            6.349e-05       0.995   3.365e-05      -4.473
	H_bgCa            1.547e-07       0.002   8.198e-08      -7.086
	H_bgMg            1.123e-07       0.002   5.951e-08      -7.225
	H_bgH2            1.707e-08       0.000   9.047e-09      -8.043
	H_bg-2            3.260e-09       0.000   1.727e-09      -8.763

H_c           
	  3.837e-02  moles
	                                   Mole                     Log
	Species               Moles    Fraction    Molality    Molality

	H_c-              2.862e-02       0.746   1.517e-02      -1.819
	H_cCa+            4.931e-03       0.129   2.613e-03      -2.583
	H_cMg+            4.719e-03       0.123   2.501e-03      -2.602
	H_cH              1.014e-04       0.003   5.376e-05      -4.270

H_cd          
	  6.378e-05  moles
	                                   Mole                     Log
	Species               Moles    Fraction    Molality    Molality

	H_cdCa            3.405e-05       0.534   1.804e-05      -4.744
	H_cdMg            2.588e-05       0.406   1.372e-05      -4.863
	H_cd-2            3.680e-06       0.058   1.950e-06      -5.710
	H_cdH-            1.680e-07       0.003   8.904e-08      -7.050
	H_cdH2            5.956e-10       0.000   3.156e-10      -9.501

H_cf          
	  6.378e-02  moles
	                                   Mole                     Log
	Species               Moles    Fraction    Molality    Molality

	H_cfH-            6.003e-02       0.941   3.181e-02      -1.497
	H_cfCa            1.928e-03       0.030   1.022e-03      -2.991
	H_cfMg            1.400e-03       0.022   7.417e-04      -3.130
	H_cf-2            2.132e-04       0.003   1.130e-04      -3.947
	H_cfH2            2.128e-04       0.003   1.128e-04      -3.948

H_ch          
	  6.378e-02  moles
	                                   Mole                     Log
	Species               Moles    Fraction    Molality    Molality

	H_chH-            6.023e-02       0.944   3.192e-02      -1.496
	H_chCa            1.934e-03       0.030   1.025e-03      -2.989
	H_chMg            1.404e-03       0.022   7.442e-04      -3.128
	H_chH2            2.135e-04       0.003   1.131e-04      -3.946
	H_ch-2            4.469e-08       0.000   2.368e-08      -7.626

H_d           
	  3.837e-02  moles
	                                   Mole                     Log
	Species               Moles    Fraction    Molality    Molality

	H_dCa+            1.580e-02       0.412   8.374e-03      -2.077
	H_dMg+            1.512e-02       0.394   8.015e-03      -2.096
	H_d-              7.119e-03       0.186   3.773e-03      -2.423
	H_dH              3.251e-04       0.008   1.723e-04      -3.764

H_de          
	  6.378e-05  moles
	                                   Mole                     Log
	Species               Moles    Fraction    Molality    Molality

	H_deH-            3.180e-05       0.499   1.685e-05      -4.773
	H_deCa            1.316e-05       0.206   6.973e-06      -5.157
	H_deMg            9.553e-06       0.150   5.062e-06      -5.296
	H_de-2            7.814e-06       0.123   4.141e-06      -5.383
	H_deH2            1.452e-06       0.023   7.696e-07      -6.114

H_dg          
	  6.378e-05  moles
	                                   Mole                     Log
	Species               Moles    Fraction    Molality    Molality

	H_dgH-            3.624e-05       0.568   1.921e-05      -4.717
	H_dgCa            1.499e-05       0.235   7.946e-06      -5.100
	H_dgMg            1.089e-05       0.171   5.769e-06      -5.239
	H_dgH2            1.655e-06       0.026   8.770e-07      -6.057
	H_dg-2            1.861e-09       0.000   9.860e-10      -9.006

H_e           
	  1.919e-02  moles
	                                   Mole                     Log
	Species               Moles    Fraction    Molality    Molality

	H_eH              1.522e-02       0.793   8.067e-03      -2.093
	H_e-              3.740e-03       0.195   1.982e-03      -2.703
	H_eCa+            1.200e-04       0.006   6.360e-05      -4.197
	H_eMg+            1.072e-04       0.006   5.680e-05      -4.246

H_f           
	  1.919e-02  moles
	                                   Mole                     Log
	Species               Moles    Fraction    Molality    Molality

	H_fH              1.884e-02       0.982   9.985e-03      -2.001
	H_fCa+            1.485e-04       0.008   7.872e-05      -4.104
	H_fMg+            1.327e-04       0.007   7.031e-05      -4.153
	H_f-              6.692e-05       0.003   3.546e-05      -4.450

H_g           
	  1.919e-02  moles
	                                   Mole                     Log
	Species               Moles    Fraction    Molality    Molality

	H_gH              1.891e-02       0.985   1.002e-02      -1.999
	H_gCa+            1.491e-04       0.008   7.899e-05      -4.102
	H_gMg+            1.331e-04       0.007   7.055e-05      -4.151
	H_g-              9.706e-07       0.000   5.144e-07      -6.289

H_h           
	  1.919e-02  moles
	                                   Mole                     Log
	Species               Moles    Fraction    Molality    Molality

	H_hH              1.891e-02       0.985   1.002e-02      -1.999
	H_hCa+            1.491e-04       0.008   7.900e-05      -4.102
	H_hMg+            1.331e-04       0.007   7.056e-05      -4.151
	H_h-              1.403e-08       0.000   7.435e-09      -8.129

Hfo           
	  2.435e-18  Surface + diffuse layer charge, eq
	 -1.271e-06  Surface charge, eq
	 -1.022e-02  sigma, C/m²
	 -2.603e-02  psi, V
	  1.048e+00  -F*psi/RT
	  2.853e+00  exp(-F*psi/RT)
	  6.000e+02  specific area, m²/g
	  1.200e+01  m² for   2.000e-02 g

	Water in diffuse layer: 1.200e-08 kg,  0.0% of total DDL-water.

	Total moles in diffuse layer (excluding water), Donnan calculation.
	Donnan Layer potential, psi_DL = -1.202e-01 V.
	Boltzmann factor, exp(-psi_DL * F / RT) = 1.266e+02 (= c_DL / c_free if z is +1).

	Element       	     Moles
	Alanine       	  5.2339e-16
	Amm           	  5.2055e-10
	C             	  1.4896e-13
	Ca            	  2.8617e-07
	Cl            	  1.1863e-12
	Cysteine      	  1.5517e-15
	Ferric        	  5.1778e-13
	Glutamine     	  4.0514e-16
	Glycine       	  6.5917e-14
	H             	  2.0876e-09
	K             	  1.9754e-12
	Mg            	  3.4012e-07
	Na            	  1.8162e-08
	O             	  1.2720e-11
	P             	  2.1136e-12
	Sulfate       	  6.9632e-13
	Threonine     	  4.0453e-16
	Tyrosine      	  4.0399e-16

Hfo_s         
	  6.000e-06  moles
	                                   Mole                     Log
	Species               Moles    Fraction    Molality    Molality

	Hfo_sOHCa+2       5.951e-06       0.992   3.154e-06      -5.501
	Hfo_sOH2+         3.966e-08       0.007   2.102e-08      -7.677
	Hfo_sOH           9.316e-09       0.002   4.937e-09      -8.307
	Hfo_sO-           5.014e-11       0.000   2.657e-11     -10.576

Hfo_w         
	  2.400e-03  moles
	                                   Mole                     Log
	Species               Moles    Fraction    Molality    Molality

	Hfo_wHPO4-        8.954e-04       0.373   4.745e-04      -3.324
	Hfo_wOH2+         8.585e-04       0.358   4.550e-04      -3.342
	Hfo_wOH           2.017e-04       0.084   1.069e-04      -3.971
	Hfo_wOMg+         1.914e-04       0.080   1.014e-04      -3.994
	Hfo_wH2PO4        1.553e-04       0.065   8.229e-05      -4.085
	Hfo_wPO4-2        8.769e-05       0.037   4.647e-05      -4.333
	Hfo_wOCa+         8.931e-06       0.004   4.733e-06      -5.325
	Hfo_wO-           1.085e-06       0.000   5.752e-07      -6.240
	Hfo_wSulfateO4-   5.684e-08       0.000   3.012e-08      -7.521
	Hfo_wOHSulfateO4-2   2.663e-08       0.000   1.411e-08      -7.850

-----------------------------------------
Beginning of batch-reaction calculations.
-----------------------------------------

Reaction step 1.

Using solution 1.	
Using exchange 1.	Exchange assemblage after simulation 3.
Using surface 1.	
Using pure phase assemblage 1.	
Using gas phase 1.	
Using reaction 1.	

Reaction 1.	

	  1.000e+00 moles of the following reaction have been added:

	                 Relative
	Reactant            moles

	CaCl2                0.00031
	K2CO3                0.00037
	K2Sulfate            0.00012
	MgSulfate            0.00049
	NaCl                 0.00551

	                 Relative
	Element             moles
	C                    0.00037
	Ca                   0.00031
	Cl                   0.00613
	K                    0.00098
	Mg                   0.00049
	Na                   0.00551
	O                    0.00110
	Sulfate              0.00061

----------------Fixed-pressure gas phase 1 dissolved completely----------------

-------------------------------Phase assemblage--------------------------------

                                                      Moles in assemblage
Phase               SI  log IAP  log K(T, P)   Initial       Final       Delta

redoxFe(OH)3(a)   -0.00     4.89      4.89    2.000e-02   2.000e-02   1.346e-06

------------------------------Surface composition------------------------------

Diffuse Double Layer Surface-Complexation Model

H             
	 -9.643e-10  Surface + diffuse layer charge, eq
	 -7.529e-01  Surface charge, eq
	 -2.126e-02  sigma, C/m²
	 -4.518e-02  psi, V
	  1.820e+00  -F*psi/RT
	  6.170e+00  exp(-F*psi/RT)
	  3.417e+04  specific area, m²/g
	  3.417e+06  m² for   1.000e+02 g

	Water in diffuse layer: 3.417e-03 kg, 100.0% of total DDL-water.

	Total moles in diffuse layer (excluding water), Donnan calculation.
	Donnan Layer potential, psi_DL = -1.264e-01 V.
	Boltzmann factor, exp(-psi_DL * F / RT) = 1.626e+02 (= c_DL / c_free if z is +1).

	Element       	     Moles
	Alanine       	  1.1217e-10
	Amm           	  2.0629e-04
	C             	  2.3631e-06
	Ca            	  1.7027e-01
	Cl            	  3.3126e-07
	Cysteine      	  4.4489e-10
	Ferric        	  3.6729e-09
	Glutamine     	  7.3930e-11
	Glycine       	  1.8442e-08
	H             	  8.3806e-04
	K             	  3.7924e-05
	Mg            	  2.0214e-01
	Na            	  7.7972e-03
	O             	  1.2187e-05
	P             	  8.7975e-07
	Sulfate       	  4.1511e-07
	Threonine     	  7.3733e-11
	Tyrosine      	  7.3553e-11

H_a           
	  3.837e-02  moles
	                                   Mole                     Log
	Species               Moles    Fraction    Molality    Molality

	H_a-              3.830e-02       0.998   2.030e-02      -1.693
	H_aCa+            3.658e-05       0.001   1.939e-05      -4.713
	H_aMg+            3.505e-05       0.001   1.857e-05      -4.731
	H_aH              7.673e-07       0.000   4.066e-07      -6.391

H_ab          
	  6.378e-02  moles
	                                   Mole                     Log
	Species               Moles    Fraction    Molality    Molality

	H_ab-2            6.373e-02       0.999   3.377e-02      -1.471
	H_abCa            1.925e-05       0.000   1.020e-05      -4.991
	H_abH-            1.645e-05       0.000   8.717e-06      -5.060
	H_abMg            1.465e-05       0.000   7.763e-06      -5.110
	H_abH2            3.296e-10       0.000   1.746e-10      -9.758

H_ad          
	  6.378e-02  moles
	                                   Mole                     Log
	Species               Moles    Fraction    Molality    Molality

	H_ad-2            5.624e-02       0.882   2.980e-02      -1.526
	H_adCa            2.885e-03       0.045   1.529e-03      -2.816
	H_adH-            2.465e-03       0.039   1.306e-03      -2.884
	H_adMg            2.195e-03       0.034   1.163e-03      -2.934
	H_adH2            4.939e-08       0.000   2.617e-08      -7.582

H_af          
	  6.378e-02  moles
	                                   Mole                     Log
	Species               Moles    Fraction    Molality    Molality

	H_afH-            5.756e-02       0.902   3.050e-02      -1.516
	H_afCa            6.003e-03       0.094   3.181e-03      -2.497
	H_af-2            2.130e-04       0.003   1.129e-04      -3.947
	H_afMg            7.758e-06       0.000   4.111e-06      -5.386
	H_afH2            1.153e-06       0.000   6.111e-07      -6.214

H_ah          
	  6.378e-02  moles
	                                   Mole                     Log
	Species               Moles    Fraction    Molality    Molality

	H_ahH-            6.376e-02       1.000   3.379e-02      -1.471
	H_ahCa            1.183e-05       0.000   6.267e-06      -5.203
	H_ahMg            8.594e-06       0.000   4.555e-06      -5.342
	H_ahH2            1.277e-06       0.000   6.770e-07      -6.169
	H_ah-2            4.929e-08       0.000   2.612e-08      -7.583

H_b           
	  3.837e-02  moles
	                                   Mole                     Log
	Species               Moles    Fraction    Molality    Molality

	H_b-              3.746e-02       0.976   1.985e-02      -1.702
	H_bCa+            4.609e-04       0.012   2.443e-04      -3.612
	H_bMg+            4.416e-04       0.012   2.340e-04      -3.631
	H_bH              9.668e-06       0.000   5.124e-06      -5.290

H_bc          
	  6.378e-02  moles
	                                   Mole                     Log
	Species               Moles    Fraction    Molality    Molality

	H_bc-2            5.831e-02       0.914   3.090e-02      -1.510
	H_bcCa            2.991e-03       0.047   1.585e-03      -2.800
	H_bcMg            2.276e-03       0.036   1.206e-03      -2.919
	H_bcH-            1.984e-04       0.003   1.051e-04      -3.978
	H_bcH2            5.121e-08       0.000   2.714e-08      -7.566

H_be          
	  6.378e-02  moles
	                                   Mole                     Log
	Species               Moles    Fraction    Molality    Molality

	H_beH-            5.060e-02       0.793   2.682e-02      -1.572
	H_be-2            1.295e-02       0.203   6.865e-03      -2.163
	H_beCa            1.209e-04       0.002   6.408e-05      -4.193
	H_beMg            8.787e-05       0.001   4.657e-05      -4.332
	H_beH2            1.306e-05       0.000   6.922e-06      -5.160

H_bg          
	  6.378e-05  moles
	                                   Mole                     Log
	Species               Moles    Fraction    Molality    Molality

	H_bgH-            6.350e-05       0.996   3.365e-05      -4.473
	H_bgCa            1.517e-07       0.002   8.040e-08      -7.095
	H_bgMg            1.103e-07       0.002   5.843e-08      -7.233
	H_bgH2            1.639e-08       0.000   8.685e-09      -8.061
	H_bg-2            3.396e-09       0.000   1.800e-09      -8.745

H_c           
	  3.837e-02  moles
	                                   Mole                     Log
	Species               Moles    Fraction    Molality    Molality

	H_c-              2.905e-02       0.757   1.539e-02      -1.813
	H_cCa+            4.711e-03       0.123   2.497e-03      -2.603
	H_cMg+            4.514e-03       0.118   2.392e-03      -2.621
	H_cH              9.883e-05       0.003   5.237e-05      -4.281

H_cd          
	  6.378e-05  moles
	                                   Mole                     Log
	Species               Moles    Fraction    Molality    Molality

	H_cdCa            3.391e-05       0.532   1.797e-05      -4.745
	H_cdMg            2.581e-05       0.405   1.368e-05      -4.864
	H_cd-2            3.893e-06       0.061   2.063e-06      -5.686
	H_cdH-            1.706e-07       0.003   9.043e-08      -7.044
	H_cdH2            5.806e-10       0.000   3.077e-10      -9.512

H_cf          
	  6.378e-02  moles
	                                   Mole                     Log
	Species               Moles    Fraction    Molality    Molality

	H_cfH-            6.009e-02       0.942   3.184e-02      -1.497
	H_cfCa            1.893e-03       0.030   1.003e-03      -2.999
	H_cfMg            1.375e-03       0.022   7.289e-04      -3.137
	H_cf-2            2.223e-04       0.003   1.178e-04      -3.929
	H_cfH2            2.044e-04       0.003   1.083e-04      -3.965

H_ch          
	  6.378e-02  moles
	                                   Mole                     Log
	Species               Moles    Fraction    Molality    Molality

	H_chH-            6.030e-02       0.945   3.195e-02      -1.495
	H_chCa            1.899e-03       0.030   1.006e-03      -2.997
	H_chMg            1.380e-03       0.022   7.315e-04      -3.136
	H_chH2            2.052e-04       0.003   1.087e-04      -3.964
	H_ch-2            4.661e-08       0.000   2.470e-08      -7.607

H_d           
	  3.837e-02  moles
	                                   Mole                     Log
	Species               Moles    Fraction    Molality    Molality

	H_dCa+            1.561e-02       0.407   8.274e-03      -2.082
	H_dMg+            1.496e-02       0.390   7.927e-03      -2.101
	H_d-              7.472e-03       0.195   3.960e-03      -2.402
	H_dH              3.275e-04       0.009   1.736e-04      -3.761

H_de          
	  6.378e-05  moles
	                                   Mole                     Log
	Species               Moles    Fraction    Molality    Molality

	H_deH-            3.188e-05       0.500   1.690e-05      -4.772
	H_deCa            1.294e-05       0.203   6.856e-06      -5.164
	H_deMg            9.402e-06       0.147   4.983e-06      -5.303
	H_de-2            8.161e-06       0.128   4.325e-06      -5.364
	H_deH2            1.397e-06       0.022   7.406e-07      -6.130

H_dg          
	  6.378e-05  moles
	                                   Mole                     Log
	Species               Moles    Fraction    Molality    Molality

	H_dgH-            3.656e-05       0.573   1.937e-05      -4.713
	H_dgCa            1.483e-05       0.233   7.862e-06      -5.104
	H_dgMg            1.078e-05       0.169   5.714e-06      -5.243
	H_dgH2            1.602e-06       0.025   8.492e-07      -6.071
	H_dg-2            1.955e-09       0.000   1.036e-09      -8.985

H_e           
	  1.919e-02  moles
	                                   Mole                     Log
	Species               Moles    Fraction    Molality    Molality

	H_eH              1.510e-02       0.787   8.004e-03      -2.097
	H_e-              3.866e-03       0.201   2.049e-03      -2.688
	H_eCa+            1.168e-04       0.006   6.188e-05      -4.208
	H_eMg+            1.044e-04       0.005   5.533e-05      -4.257

H_f           
	  1.919e-02  moles
	                                   Mole                     Log
	Species               Moles    Fraction    Molality    Molality

	H_fH              1.884e-02       0.982   9.987e-03      -2.001
	H_fCa+            1.457e-04       0.008   7.721e-05      -4.112
	H_fMg+            1.303e-04       0.007   6.904e-05      -4.161
	H_f-              6.972e-05       0.004   3.695e-05      -4.432

H_g           
	  1.919e-02  moles
	                                   Mole                     Log
	Species               Moles    Fraction    Molality    Molality

	H_gH              1.891e-02       0.986   1.002e-02      -1.999
	H_gCa+            1.462e-04       0.008   7.749e-05      -4.111
	H_gMg+            1.307e-04       0.007   6.929e-05      -4.159
	H_g-              1.011e-06       0.000   5.360e-07      -6.271

H_h           
	  1.919e-02  moles
	                                   Mole                     Log
	Species               Moles    Fraction    Molality    Molality

	H_hH              1.891e-02       0.986   1.002e-02      -1.999
	H_hCa+            1.462e-04       0.008   7.750e-05      -4.111
	H_hMg+            1.307e-04       0.007   6.929e-05      -4.159
	H_h-              1.462e-08       0.000   7.748e-09      -8.111

Hfo           
	 -1.638e-15  Surface + diffuse layer charge, eq
	 -1.293e-06  Surface charge, eq
	 -1.040e-02  sigma, C/m²
	 -2.430e-02  psi, V
	  9.787e-01  -F*psi/RT
	  2.661e+00  exp(-F*psi/RT)
	  6.000e+02  specific area, m²/g
	  1.200e+01  m² for   2.000e-02 g

	Water in diffuse layer: 1.200e-08 kg,  0.0% of total DDL-water.

	Total moles in diffuse layer (excluding water), Donnan calculation.
	Donnan Layer potential, psi_DL = -1.175e-01 V.
	Boltzmann factor, exp(-psi_DL * F / RT) = 1.135e+02 (= c_DL / c_free if z is +1).

	Element       	     Moles
	Alanine       	  6.3593e-16
	Amm           	  5.0554e-10
	C             	  5.9142e-12
	Ca            	  2.9117e-07
	Cl            	  1.6671e-12
	Cysteine      	  1.8042e-15
	Ferric        	  8.7743e-15
	Glutamine     	  5.0157e-16
	Glycine       	  7.2659e-14
	H             	  2.0632e-09
	K             	  9.2936e-11
	Mg            	  3.4566e-07
	Na            	  1.9108e-08
	O             	  3.2178e-11
	P             	  2.2279e-12
	Sulfate       	  1.4588e-12
	Threonine     	  5.0088e-16
	Tyrosine      	  5.0026e-16

Hfo_s         
	  6.000e-06  moles
	                                   Mole                     Log
	Species               Moles    Fraction    Molality    Molality

	Hfo_sOHCa+2       5.953e-06       0.992   3.155e-06      -5.501
	Hfo_sOH2+         3.817e-08       0.006   2.023e-08      -7.694
	Hfo_sOH           8.815e-09       0.001   4.672e-09      -8.331
	Hfo_sO-           4.663e-11       0.000   2.471e-11     -10.607

Hfo_w         
	  2.400e-03  moles
	                                   Mole                     Log
	Species               Moles    Fraction    Molality    Molality

	Hfo_wHPO4-        8.978e-04       0.374   4.758e-04      -3.323
	Hfo_wOH2+         8.548e-04       0.356   4.530e-04      -3.344
	Hfo_wOH           1.974e-04       0.082   1.046e-04      -3.980
	Hfo_wOMg+         1.949e-04       0.081   1.033e-04      -3.986
	Hfo_wH2PO4        1.584e-04       0.066   8.394e-05      -4.076
	Hfo_wPO4-2        8.643e-05       0.036   4.581e-05      -4.339
	Hfo_wOCa+         9.085e-06       0.004   4.815e-06      -5.317
	Hfo_wO-           1.044e-06       0.000   5.534e-07      -6.257
	Hfo_wSulfateO4-   1.122e-07       0.000   5.946e-08      -7.226
	Hfo_wOHSulfateO4-2   5.166e-08       0.000   2.738e-08      -7.563

-----------------------------Exchange composition------------------------------

X                2.000e-01 mol

	                               Equiv-    Equivalent      Log 
	Species             Moles      alents      Fraction     Gamma

	MgX2              5.136e-02   1.027e-01   5.136e-01     0.000
	CaX2              3.383e-02   6.765e-02   3.383e-01     0.000
	NaX               2.751e-02   2.751e-02   1.376e-01     0.000
	AmmH4X            1.272e-03   1.272e-03   6.361e-03     0.000
	KX                8.341e-04   8.341e-04   4.171e-03    -0.072
	HX                2.188e-06   2.188e-06   1.094e-05    -0.058

-----------------------------Solution composition------------------------------

	Elements           Molality       Moles

	Alanine           5.056e-04   9.541e-04
	Amm               3.737e-04   7.052e-04
	C                 1.990e-04   3.754e-04
	Ca                1.950e-03   3.680e-03
	Cl                1.576e-02   2.974e-02
	Cysteine          5.056e-04   9.541e-04
	Ferric            1.101e-08   2.078e-08
	Glutamine         5.056e-04   9.541e-04
	Glycine           5.056e-04   9.541e-04
	K                 6.838e-05   1.290e-04
	Mg                2.319e-03   4.376e-03
	Na                1.406e-02   2.652e-02
	P                 7.969e-05   1.504e-04
	Sulfate           7.049e-04   1.330e-03
	Threonine         5.056e-04   9.541e-04
	Tyrosine          5.056e-04   9.541e-04

----------------------------Description of solution----------------------------

                                       pH  =   7.079      Charge balance
                                       pe  =  -7.189      Adjusted to redox equilibrium
      Specific Conductance (µS/cm,  15°C)  = 1708
                        Activity of water  =   0.999
                 Ionic strength (mol/kgw)  =   2.997e-02
                       Mass of water (kg)  =   1.887e+00
                 Total alkalinity (eq/kg)  =   3.255e-03
                       Total CO2 (mol/kg)  =   1.990e-04
                         Temperature (°C)  =  15.00
                  Electrical balance (eq)  =  -1.030e-11
 Percent error, 100*(Cat-|An|)/(Cat+|An|)  =  -0.00
                               Iterations  =   1
                                  Total H  = 2.094839e+02
                                  Total O  = 1.047448e+02

----------------------------Distribution of species----------------------------

                                               Log       Log       Log    mole V
   Species          Molality    Activity  Molality  Activity     Gamma   cm³/mol

   H+              9.528e-08   8.346e-08    -7.021    -7.079    -0.058      0.00
   OH-             6.378e-08   5.397e-08    -7.195    -7.268    -0.072     (0)  
   H2O             5.551e+01   9.993e-01     1.744    -0.000     0.000     18.03
Alanine       5.056e-04
   Alanine-2       5.056e-04   2.665e-04    -3.296    -3.574    -0.278     (0)  
   H2(Alanine)     1.367e-08   1.376e-08    -7.864    -7.861     0.003     (0)  
   H(Alanine)-     5.844e-09   4.980e-09    -8.233    -8.303    -0.070     (0)  
Amm           3.737e-04
   AmmH4+          3.713e-04   3.116e-04    -3.430    -3.506    -0.076     (0)  
   AmmH4SulfateO4-   1.416e-06   1.207e-06    -5.849    -5.918    -0.070     (0)  
   AmmH3           1.016e-06   1.024e-06    -5.993    -5.990     0.003     (0)  
C(4)          1.990e-04
   HCO3-           1.632e-04   1.400e-04    -3.787    -3.854    -0.067     (0)  
   CO2             3.047e-05   3.068e-05    -4.516    -4.513     0.003     (0)  
   MgHCO3+         2.292e-06   1.953e-06    -5.640    -5.709    -0.070     (0)  
   CaHCO3+         1.761e-06   1.511e-06    -5.754    -5.821    -0.067     (0)  
   NaHCO3          9.373e-07   9.438e-07    -6.028    -6.025     0.003     (0)  
   CO3-2           1.155e-07   6.257e-08    -6.938    -7.204    -0.266     (0)  
   CaCO3           9.081e-08   9.144e-08    -7.042    -7.039     0.003     (0)  
   MgCO3           6.269e-08   6.312e-08    -7.203    -7.200     0.003     (0)  
   NaCO3-          9.724e-09   8.286e-09    -8.012    -8.082    -0.070     (0)  
Ca            1.950e-03
   Ca+2            1.885e-03   1.022e-03    -2.725    -2.991    -0.266     (0)  
   CaSulfateO4     5.526e-05   5.564e-05    -4.258    -4.255     0.003     (0)  
   CaHPO4          7.386e-06   7.437e-06    -5.132    -5.129     0.003     (0)  
   CaHCO3+         1.761e-06   1.511e-06    -5.754    -5.821    -0.067     (0)  
   CaH2PO4+        5.768e-07   4.915e-07    -6.239    -6.308    -0.070     (0)  
   CaPO4-          2.036e-07   1.735e-07    -6.691    -6.761    -0.070     (0)  
   CaCO3           9.081e-08   9.144e-08    -7.042    -7.039     0.003     (0)  
   CaOH+           2.383e-09   2.031e-09    -8.623    -8.692    -0.070     (0)  
   CaHSulfateO4+   2.854e-11   2.432e-11   -10.545   -10.614    -0.070     (0)  
Cl            1.576e-02
   Cl-             1.576e-02   1.335e-02    -1.802    -1.874    -0.072     (0)  
   FerricCl+2      2.498e-17   1.317e-17   -16.602   -16.881    -0.278     (0)  
   FerricCl2+      1.279e-18   1.090e-18   -17.893   -17.963    -0.070     (0)  
   FerricCl3       1.446e-21   1.456e-21   -20.840   -20.837     0.003     (0)  
Cysteine      5.056e-04
   Cysteine-2      5.055e-04   2.665e-04    -3.296    -3.574    -0.278     (0)  
   H2(Cysteine)    1.111e-07   1.118e-07    -6.954    -6.951     0.003     (0)  
   H(Cysteine)-    1.339e-09   1.141e-09    -8.873    -8.943    -0.070     (0)  
Ferric        1.101e-08
   Ferric(OH)2+    5.988e-09   5.103e-09    -8.223    -8.292    -0.070     (0)  
   Ferric(OH)3     4.979e-09   5.014e-09    -8.303    -8.300     0.003     (0)  
   Ferric(OH)4-    4.239e-11   3.612e-11   -10.373   -10.442    -0.070     (0)  
   FerricOH+2      3.615e-12   1.905e-12   -11.442   -11.720    -0.278     (0)  
   FerricH2PO4+2   5.309e-16   2.798e-16   -15.275   -15.553    -0.278     (0)  
   FerricHPO4+     1.645e-16   1.402e-16   -15.784   -15.853    -0.070     (0)  
   Ferric+3        1.493e-16   4.532e-17   -15.826   -16.344    -0.518     (0)  
   FerricSulfateO4+   1.394e-16   1.188e-16   -15.856   -15.925    -0.070     (0)  
   FerricCl+2      2.498e-17   1.317e-17   -16.602   -16.881    -0.278     (0)  
   FerricCl2+      1.279e-18   1.090e-18   -17.893   -17.963    -0.070     (0)  
   Ferric(SulfateO4)2-   8.804e-19   7.501e-19   -18.055   -18.125    -0.070     (0)  
   Ferric2(OH)2+4   1.941e-21   1.499e-22   -20.712   -21.824    -1.112     (0)  
   FerricCl3       1.446e-21   1.456e-21   -20.840   -20.837     0.003     (0)  
   FerricHSulfateO4+2   5.139e-23   2.709e-23   -22.289   -22.567    -0.278     (0)  
   Ferric3(OH)4+5   2.271e-26   4.150e-28   -25.644   -27.382    -1.738     (0)  
Glutamine     5.056e-04
   Glutamine-2     5.056e-04   2.665e-04    -3.296    -3.574    -0.278     (0)  
   H(Glutamine)-   3.861e-09   3.290e-09    -8.413    -8.483    -0.070     (0)  
   H2(Glutamine)   2.487e-09   2.504e-09    -8.604    -8.601     0.003     (0)  
Glycine       5.056e-04
   Glycine-        5.056e-04   4.308e-04    -3.296    -3.366    -0.070     (0)  
   H2(Glycine)+    1.402e-08   1.195e-08    -7.853    -7.923    -0.070     (0)  
   H(Glycine)      7.812e-09   7.866e-09    -8.107    -8.104     0.003     (0)  
H(0)          2.592e-03
   H2              1.296e-03   1.305e-03    -2.887    -2.884     0.003     (0)  
K             6.838e-05
   K+              6.826e-05   5.782e-05    -4.166    -4.238    -0.072     (0)  
   KSulfateO4-     1.196e-07   1.019e-07    -6.922    -6.992    -0.070     (0)  
   KHPO4-          2.131e-09   1.816e-09    -8.671    -8.741    -0.070     (0)  
   KOH             2.384e-12   2.401e-12   -11.623   -11.620     0.003     (0)  
Mg            2.319e-03
   Mg+2            2.238e-03   1.233e-03    -2.650    -2.909    -0.259     (0)  
   MgSulfateO4     6.607e-05   6.653e-05    -4.180    -4.177     0.003     (0)  
   MgHPO4          1.205e-05   1.213e-05    -4.919    -4.916     0.003     (0)  
   MgHCO3+         2.292e-06   1.953e-06    -5.640    -5.709    -0.070     (0)  
   MgH2PO4+        8.860e-07   7.550e-07    -6.053    -6.122    -0.070     (0)  
   MgPO4-          3.312e-07   2.822e-07    -6.480    -6.549    -0.070     (0)  
   MgCO3           6.269e-08   6.312e-08    -7.203    -7.200     0.003     (0)  
   MgOH+           2.471e-08   2.105e-08    -7.607    -7.677    -0.070     (0)  
Na            1.406e-02
   Na+             1.403e-02   1.198e-02    -1.853    -1.921    -0.069     (0)  
   NaSulfateO4-    1.984e-05   1.691e-05    -4.702    -4.772    -0.070     (0)  
   NaHCO3          9.373e-07   9.438e-07    -6.028    -6.025     0.003     (0)  
   NaHPO4-         4.416e-07   3.763e-07    -6.355    -6.424    -0.070     (0)  
   NaCO3-          9.724e-09   8.286e-09    -8.012    -8.082    -0.070     (0)  
   NaOH            9.415e-10   9.481e-10    -9.026    -9.023     0.003     (0)  
O(0)          0.000e+00
   O2              0.000e+00   0.000e+00   -89.954   -89.951     0.003     (0)  
P             7.969e-05
   HPO4-2          3.092e-05   1.610e-05    -4.510    -4.793    -0.283     (0)  
   H2PO4-          2.690e-05   2.294e-05    -4.570    -4.639    -0.069     (0)  
   MgHPO4          1.205e-05   1.213e-05    -4.919    -4.916     0.003     (0)  
   CaHPO4          7.386e-06   7.437e-06    -5.132    -5.129     0.003     (0)  
   MgH2PO4+        8.860e-07   7.550e-07    -6.053    -6.122    -0.070     (0)  
   CaH2PO4+        5.768e-07   4.915e-07    -6.239    -6.308    -0.070     (0)  
   NaHPO4-         4.416e-07   3.763e-07    -6.355    -6.424    -0.070     (0)  
   MgPO4-          3.312e-07   2.822e-07    -6.480    -6.549    -0.070     (0)  
   CaPO4-          2.036e-07   1.735e-07    -6.691    -6.761    -0.070     (0)  
   KHPO4-          2.131e-09   1.816e-09    -8.671    -8.741    -0.070     (0)  
   PO4-3           3.069e-10   7.074e-11    -9.513   -10.150    -0.637     (0)  
   FerricH2PO4+2   5.309e-16   2.798e-16   -15.275   -15.553    -0.278     (0)  
   FerricHPO4+     1.645e-16   1.402e-16   -15.784   -15.853    -0.070     (0)  
Sulfate       7.049e-04
   SulfateO4-2     5.622e-04   3.006e-04    -3.250    -3.522    -0.272     (0)  
   MgSulfateO4     6.607e-05   6.653e-05    -4.180    -4.177     0.003     (0)  
   CaSulfateO4     5.526e-05   5.564e-05    -4.258    -4.255     0.003     (0)  
   NaSulfateO4-    1.984e-05   1.691e-05    -4.702    -4.772    -0.070     (0)  
   AmmH4SulfateO4-   1.416e-06   1.207e-06    -5.849    -5.918    -0.070     (0)  
   KSulfateO4-     1.196e-07   1.019e-07    -6.922    -6.992    -0.070     (0)  
   HSulfateO4-     2.323e-09   1.979e-09    -8.634    -8.704    -0.070     (0)  
   CaHSulfateO4+   2.854e-11   2.432e-11   -10.545   -10.614    -0.070     (0)  
   FerricSulfateO4+   1.394e-16   1.188e-16   -15.856   -15.925    -0.070     (0)  
   Ferric(SulfateO4)2-   8.804e-19   7.501e-19   -18.055   -18.125    -0.070     (0)  
   FerricHSulfateO4+2   5.139e-23   2.709e-23   -22.289   -22.567    -0.278     (0)  
Threonine     5.056e-04
   Threonine-2     5.056e-04   2.665e-04    -3.296    -3.574    -0.278     (0)  
   H(Threonine)-   3.688e-09   3.142e-09    -8.433    -8.503    -0.070     (0)  
   H2(Threonine)   2.430e-09   2.447e-09    -8.614    -8.611     0.003     (0)  
Tyrosine      5.056e-04
   Tyrosine-2      5.056e-04   2.665e-04    -3.296    -3.574    -0.278     (0)  
   H(Tyrosine)-    4.137e-09   3.525e-09    -8.383    -8.453    -0.070     (0)  
   H2(Tyrosine)    2.375e-09   2.392e-09    -8.624    -8.621     0.003     (0)  

------------------------------Saturation indices-------------------------------

  Phase               SI** log IAP   log K(288 K,   1 atm)

  FixpH            -7.08     -7.08    0.00  H+
  H2(g)             0.22     -2.88   -3.11  H2
  H2O(g)           -1.78     -0.00    1.78  H2O
  Halite           -5.35     -3.80    1.56  NaCl
  Hydroxyapatite    1.48     -1.02   -2.50  Ca5(PO4)3OH
  redoxAnhydrite   -2.18     -6.51   -4.34  CaSulfateO4
  redoxAragonite   -1.92    -10.19   -8.28  CaCO3
  redoxCalcite     -1.76    -10.19   -8.43  CaCO3
  redoxCO2(g)      -3.17     -4.51   -1.34  CO2
  redoxDolomite    -3.46    -20.31  -16.85  CaMg(CO3)2
  redoxFe(OH)3(a)  -0.00      4.89    4.89  Ferric(OH)3
  redoxGoethite     5.52      4.89   -0.63  FerricOOH
  redoxGypsum      -1.93     -6.51   -4.58  CaSulfateO4:2H2O
  redoxHematite    13.01      9.78   -3.22  Ferric2O3
  redoxJarosite-K  -9.43    -17.84   -8.41  KFerric3(SulfateO4)2(OH)6
  redoxNH3(g)      -7.97     -5.99    1.98  AmmH3

**For a gas, SI = log10(fugacity). Fugacity = pressure * phi / 1 atm.
  For ideal gases, phi = 1.

Reaction step 2.

Using solution 1.	
Using exchange 1.	Exchange assemblage after simulation 3.
Using surface 1.	
Using pure phase assemblage 1.	
Using gas phase 1.	
Using reaction 1.	

Reaction 1.	

	  2.000e+00 moles of the following reaction have been added:

	                 Relative
	Reactant            moles

	CaCl2                0.00031
	K2CO3                0.00037
	K2Sulfate            0.00012
	MgSulfate            0.00049
	NaCl                 0.00551

	                 Relative
	Element             moles
	C                    0.00037
	Ca                   0.00031
	Cl                   0.00613
	K                    0.00098
	Mg                   0.00049
	Na                   0.00551
	O                    0.00110
	Sulfate              0.00061

----------------Fixed-pressure gas phase 1 dissolved completely----------------

-------------------------------Phase assemblage--------------------------------

                                                      Moles in assemblage
Phase               SI  log IAP  log K(T, P)   Initial       Final       Delta

redoxFe(OH)3(a)    0.00     4.89      4.89    2.000e-02   2.000e-02   1.345e-06

------------------------------Surface composition------------------------------

Diffuse Double Layer Surface-Complexation Model

H             
	 -3.624e-10  Surface + diffuse layer charge, eq
	 -7.561e-01  Surface charge, eq
	 -2.135e-02  sigma, C/m²
	 -4.263e-02  psi, V
	  1.717e+00  -F*psi/RT
	  5.567e+00  exp(-F*psi/RT)
	  3.417e+04  specific area, m²/g
	  3.417e+06  m² for   1.000e+02 g

	Water in diffuse layer: 3.417e-03 kg, 100.0% of total DDL-water.

	Total moles in diffuse layer (excluding water), Donnan calculation.
	Donnan Layer potential, psi_DL = -1.241e-01 V.
	Boltzmann factor, exp(-psi_DL * F / RT) = 1.482e+02 (= c_DL / c_free if z is +1).

	Element       	     Moles
	Alanine       	  1.3002e-10
	Amm           	  2.0020e-04
	C             	  4.8947e-06
	Ca            	  1.7100e-01
	Cl            	  4.3839e-07
	Cysteine      	  4.9475e-10
	Ferric        	  3.6123e-09
	Glutamine     	  8.8100e-11
	Glycine       	  1.9789e-08
	H             	  8.2502e-04
	K             	  7.3528e-05
	Mg            	  2.0283e-01
	Na            	  8.1498e-03
	O             	  2.0787e-05
	P             	  9.0989e-07
	Sulfate       	  6.6385e-07
	Threonine     	  8.7884e-11
	Tyrosine      	  8.7687e-11

H_a           
	  3.837e-02  moles
	                                   Mole                     Log
	Species               Moles    Fraction    Molality    Molality

	H_a-              3.830e-02       0.998   2.030e-02      -1.693
	H_aCa+            3.472e-05       0.001   1.840e-05      -4.735
	H_aMg+            3.330e-05       0.001   1.765e-05      -4.753
	H_aH              7.395e-07       0.000   3.919e-07      -6.407

H_ab          
	  6.378e-02  moles
	                                   Mole                     Log
	Species               Moles    Fraction    Molality    Molality

	H_ab-2            6.373e-02       0.999   3.378e-02      -1.471
	H_abCa            1.827e-05       0.000   9.681e-06      -5.014
	H_abH-            1.585e-05       0.000   8.401e-06      -5.076
	H_abMg            1.392e-05       0.000   7.377e-06      -5.132
	H_abH2            3.061e-10       0.000   1.622e-10      -9.790

H_ad          
	  6.378e-02  moles
	                                   Mole                     Log
	Species               Moles    Fraction    Molality    Molality

	H_ad-2            5.654e-02       0.887   2.997e-02      -1.523
	H_adCa            2.752e-03       0.043   1.459e-03      -2.836
	H_adH-            2.388e-03       0.037   1.266e-03      -2.898
	H_adMg            2.097e-03       0.033   1.111e-03      -2.954
	H_adH2            4.612e-08       0.000   2.444e-08      -7.612

H_af          
	  6.378e-02  moles
	                                   Mole                     Log
	Species               Moles    Fraction    Molality    Molality

	H_afH-            5.763e-02       0.904   3.054e-02      -1.515
	H_afCa            5.919e-03       0.093   3.137e-03      -2.503
	H_af-2            2.213e-04       0.003   1.173e-04      -3.931
	H_afMg            7.659e-06       0.000   4.059e-06      -5.392
	H_afH2            1.113e-06       0.000   5.897e-07      -6.229

H_ah          
	  6.378e-02  moles
	                                   Mole                     Log
	Species               Moles    Fraction    Molality    Molality

	H_ahH-            6.376e-02       1.000   3.379e-02      -1.471
	H_ahCa            1.164e-05       0.000   6.171e-06      -5.210
	H_ahMg            8.474e-06       0.000   4.491e-06      -5.348
	H_ahH2            1.231e-06       0.000   6.524e-07      -6.185
	H_ah-2            5.114e-08       0.000   2.711e-08      -7.567

H_b           
	  3.837e-02  moles
	                                   Mole                     Log
	Species               Moles    Fraction    Molality    Molality

	H_b-              3.750e-02       0.977   1.988e-02      -1.702
	H_bCa+            4.379e-04       0.011   2.321e-04      -3.634
	H_bMg+            4.201e-04       0.011   2.226e-04      -3.652
	H_bH              9.328e-06       0.000   4.944e-06      -5.306

H_bc          
	  6.378e-02  moles
	                                   Mole                     Log
	Species               Moles    Fraction    Molality    Molality

	H_bc-2            5.856e-02       0.918   3.104e-02      -1.508
	H_bcCa            2.851e-03       0.045   1.511e-03      -2.821
	H_bcMg            2.172e-03       0.034   1.151e-03      -2.939
	H_bcH-            1.920e-04       0.003   1.018e-04      -3.992
	H_bcH2            4.776e-08       0.000   2.531e-08      -7.597

H_be          
	  6.378e-02  moles
	                                   Mole                     Log
	Species               Moles    Fraction    Molality    Molality

	H_beH-            5.022e-02       0.787   2.662e-02      -1.575
	H_be-2            1.334e-02       0.209   7.070e-03      -2.151
	H_beCa            1.182e-04       0.002   6.263e-05      -4.203
	H_beMg            8.599e-05       0.001   4.557e-05      -4.341
	H_beH2            1.249e-05       0.000   6.620e-06      -5.179

H_bg          
	  6.378e-05  moles
	                                   Mole                     Log
	Species               Moles    Fraction    Molality    Molality

	H_bgH-            6.350e-05       0.996   3.365e-05      -4.473
	H_bgCa            1.494e-07       0.002   7.918e-08      -7.101
	H_bgMg            1.087e-07       0.002   5.762e-08      -7.239
	H_bgH2            1.580e-08       0.000   8.371e-09      -8.077
	H_bg-2            3.524e-09       0.000   1.868e-09      -8.729

H_c           
	  3.837e-02  moles
	                                   Mole                     Log
	Species               Moles    Fraction    Molality    Molality

	H_c-              2.941e-02       0.766   1.558e-02      -1.807
	H_cCa+            4.526e-03       0.118   2.399e-03      -2.620
	H_cMg+            4.342e-03       0.113   2.301e-03      -2.638
	H_cH              9.642e-05       0.003   5.110e-05      -4.292

H_cd          
	  6.378e-05  moles
	                                   Mole                     Log
	Species               Moles    Fraction    Molality    Molality

	H_cdCa            3.378e-05       0.530   1.790e-05      -4.747
	H_cdMg            2.574e-05       0.404   1.364e-05      -4.865
	H_cd-2            4.086e-06       0.064   2.166e-06      -5.664
	H_cdH-            1.726e-07       0.003   9.148e-08      -7.039
	H_cdH2            5.660e-10       0.000   3.000e-10      -9.523

H_cf          
	  6.378e-02  moles
	                                   Mole                     Log
	Species               Moles    Fraction    Molality    Molality

	H_cfH-            6.013e-02       0.943   3.187e-02      -1.497
	H_cfCa            1.865e-03       0.029   9.884e-04      -3.005
	H_cfMg            1.357e-03       0.021   7.193e-04      -3.143
	H_cf-2            2.309e-04       0.004   1.223e-04      -3.912
	H_cfH2            1.972e-04       0.003   1.045e-04      -3.981

H_ch          
	  6.378e-02  moles
	                                   Mole                     Log
	Species               Moles    Fraction    Molality    Molality

	H_chH-            6.035e-02       0.946   3.198e-02      -1.495
	H_chCa            1.872e-03       0.029   9.920e-04      -3.003
	H_chMg            1.362e-03       0.021   7.219e-04      -3.142
	H_chH2            1.979e-04       0.003   1.049e-04      -3.979
	H_ch-2            4.841e-08       0.000   2.566e-08      -7.591

H_d           
	  3.837e-02  moles
	                                   Mole                     Log
	Species               Moles    Fraction    Molality    Molality

	H_dCa+            1.544e-02       0.402   8.184e-03      -2.087
	H_dMg+            1.481e-02       0.386   7.850e-03      -2.105
	H_d-              7.787e-03       0.203   4.127e-03      -2.384
	H_dH              3.289e-04       0.009   1.743e-04      -3.759

H_de          
	  6.378e-05  moles
	                                   Mole                     Log
	Species               Moles    Fraction    Molality    Molality

	H_deH-            3.192e-05       0.500   1.692e-05      -4.772
	H_deCa            1.275e-05       0.200   6.759e-06      -5.170
	H_deMg            9.281e-06       0.146   4.919e-06      -5.308
	H_de-2            8.478e-06       0.133   4.493e-06      -5.347
	H_deH2            1.348e-06       0.021   7.145e-07      -6.146

H_dg          
	  6.378e-05  moles
	                                   Mole                     Log
	Species               Moles    Fraction    Molality    Molality

	H_dgH-            3.681e-05       0.577   1.951e-05      -4.710
	H_dgCa            1.471e-05       0.231   7.795e-06      -5.108
	H_dgMg            1.070e-05       0.168   5.672e-06      -5.246
	H_dgH2            1.555e-06       0.024   8.241e-07      -6.084
	H_dg-2            2.043e-09       0.000   1.083e-09      -8.966

H_e           
	  1.919e-02  moles
	                                   Mole                     Log
	Species               Moles    Fraction    Molality    Molality

	H_eH              1.499e-02       0.781   7.945e-03      -2.100
	H_e-              3.982e-03       0.208   2.110e-03      -2.676
	H_eCa+            1.141e-04       0.006   6.049e-05      -4.218
	H_eMg+            1.022e-04       0.005   5.416e-05      -4.266

H_f           
	  1.919e-02  moles
	                                   Mole                     Log
	Species               Moles    Fraction    Molality    Molality

	H_fH              1.885e-02       0.982   9.988e-03      -2.001
	H_fCa+            1.435e-04       0.007   7.604e-05      -4.119
	H_fMg+            1.285e-04       0.007   6.808e-05      -4.167
	H_f-              7.236e-05       0.004   3.835e-05      -4.416

H_g           
	  1.919e-02  moles
	                                   Mole                     Log
	Species               Moles    Fraction    Molality    Molality

	H_gH              1.892e-02       0.986   1.002e-02      -1.999
	H_gCa+            1.440e-04       0.008   7.633e-05      -4.117
	H_gMg+            1.289e-04       0.007   6.833e-05      -4.165
	H_g-              1.050e-06       0.000   5.563e-07      -6.255

H_h           
	  1.919e-02  moles
	                                   Mole                     Log
	Species               Moles    Fraction    Molality    Molality

	H_hH              1.892e-02       0.986   1.003e-02      -1.999
	H_hCa+            1.440e-04       0.008   7.633e-05      -4.117
	H_hMg+            1.289e-04       0.007   6.834e-05      -4.165
	H_h-              1.517e-08       0.000   8.042e-09      -8.095

Hfo           
	 -6.227e-16  Surface + diffuse layer charge, eq
	 -1.312e-06  Surface charge, eq
	 -1.055e-02  sigma, C/m²
	 -2.292e-02  psi, V
	  9.233e-01  -F*psi/RT
	  2.518e+00  exp(-F*psi/RT)
	  6.000e+02  specific area, m²/g
	  1.200e+01  m² for   2.000e-02 g

	Water in diffuse layer: 1.200e-08 kg,  0.0% of total DDL-water.

	Total moles in diffuse layer (excluding water), Donnan calculation.
	Donnan Layer potential, psi_DL = -1.153e-01 V.
	Boltzmann factor, exp(-psi_DL * F / RT) = 1.039e+02 (= c_DL / c_free if z is +1).

	Element       	     Moles
	Alanine       	  7.4239e-16
	Amm           	  4.9306e-10
	C             	  1.2307e-11
	Ca            	  2.9534e-07
	Cl            	  2.1953e-12
	Cysteine      	  2.0230e-15
	Ferric        	  8.6748e-15
	Glutamine     	  5.9509e-16
	Glycine       	  7.8440e-14
	H             	  2.0506e-09
	K             	  1.8109e-10
	Mg            	  3.5033e-07
	Na            	  2.0072e-08
	O             	  5.4816e-11
	P             	  2.3156e-12
	Sulfate       	  2.3329e-12
	Threonine     	  5.9433e-16
	Tyrosine      	  5.9365e-16

Hfo_s         
	  6.000e-06  moles
	                                   Mole                     Log
	Species               Moles    Fraction    Molality    Molality

	Hfo_sOHCa+2       5.955e-06       0.992   3.156e-06      -5.501
	Hfo_sOH2+         3.697e-08       0.006   1.959e-08      -7.708
	Hfo_sOH           8.448e-09       0.001   4.477e-09      -8.349
	Hfo_sO-           4.422e-11       0.000   2.343e-11     -10.630

Hfo_w         
	  2.400e-03  moles
	                                   Mole                     Log
	Species               Moles    Fraction    Molality    Molality

	Hfo_wHPO4-        8.994e-04       0.375   4.767e-04      -3.322
	Hfo_wOH2+         8.511e-04       0.355   4.510e-04      -3.346
	Hfo_wOMg+         1.985e-04       0.083   1.052e-04      -3.978
	Hfo_wOH           1.945e-04       0.081   1.031e-04      -3.987
	Hfo_wH2PO4        1.604e-04       0.067   8.498e-05      -4.071
	Hfo_wPO4-2        8.567e-05       0.036   4.540e-05      -4.343
	Hfo_wOCa+         9.243e-06       0.004   4.899e-06      -5.310
	Hfo_wO-           1.018e-06       0.000   5.395e-07      -6.268
	Hfo_wSulfateO4-   1.712e-07       0.000   9.076e-08      -7.042
	Hfo_wOHSulfateO4-2   7.801e-08       0.000   4.134e-08      -7.384

-----------------------------Exchange composition------------------------------

X                2.000e-01 mol

	                               Equiv-    Equivalent      Log 
	Species             Moles      alents      Fraction     Gamma

	MgX2              5.078e-02   1.016e-01   5.078e-01     0.000
	CaX2              3.340e-02   6.680e-02   3.340e-01     0.000
	NaX               2.876e-02   2.876e-02   1.438e-01     0.000
	KX                1.633e-03   1.633e-03   8.165e-03    -0.077
	AmmH4X            1.232e-03   1.232e-03   6.158e-03     0.000
	HX                2.165e-06   2.165e-06   1.083e-05    -0.061

-----------------------------Solution composition------------------------------

	Elements           Molality       Moles

	Alanine           5.056e-04   9.541e-04
	Amm               3.985e-04   7.518e-04
	C                 3.924e-04   7.405e-04
	Ca                2.380e-03   4.491e-03
	Cl                1.901e-02   3.587e-02
	Cysteine          5.056e-04   9.541e-04
	Ferric            1.148e-08   2.166e-08
	Glutamine         5.056e-04   9.541e-04
	Glycine           5.056e-04   9.541e-04
	K                 1.456e-04   2.747e-04
	Mg                2.829e-03   5.337e-03
	Na                1.613e-02   3.044e-02
	P                 7.821e-05   1.476e-04
	Sulfate           1.029e-03   1.942e-03
	Threonine         5.056e-04   9.541e-04
	Tyrosine          5.056e-04   9.541e-04

----------------------------Description of solution----------------------------

                                       pH  =   7.050      Charge balance
                                       pe  =  -7.311      Adjusted to redox equilibrium
      Specific Conductance (µS/cm,  15°C)  = 2030
                        Activity of water  =   0.999
                 Ionic strength (mol/kgw)  =   3.495e-02
                       Mass of water (kg)  =   1.887e+00
                 Total alkalinity (eq/kg)  =   3.416e-03
                       Total CO2 (mol/kg)  =   3.924e-04
                         Temperature (°C)  =  15.00
                  Electrical balance (eq)  =  -1.030e-11
 Percent error, 100*(Cat-|An|)/(Cat+|An|)  =  -0.00
                               Iterations  =   1
                                  Total H  = 2.094845e+02
                                  Total O  = 1.047459e+02

----------------------------Distribution of species----------------------------

                                               Log       Log       Log    mole V
   Species          Molality    Activity  Molality  Activity     Gamma   cm³/mol

   H+              1.025e-07   8.916e-08    -6.989    -7.050    -0.061      0.00
   OH-             6.035e-08   5.052e-08    -7.219    -7.297    -0.077     (0)  
   H2O             5.551e+01   9.992e-01     1.744    -0.000     0.000     18.03
Alanine       5.056e-04
   Alanine-2       5.056e-04   2.563e-04    -3.296    -3.591    -0.295     (0)  
   H2(Alanine)     1.498e-08   1.510e-08    -7.824    -7.821     0.003     (0)  
   H(Alanine)-     6.063e-09   5.116e-09    -8.217    -8.291    -0.074     (0)  
Amm           3.985e-04
   AmmH4+          3.954e-04   3.278e-04    -3.403    -3.484    -0.081     (0)  
   AmmH4SulfateO4-   2.064e-06   1.741e-06    -5.685    -5.759    -0.074     (0)  
   AmmH3           9.999e-07   1.008e-06    -6.000    -5.997     0.003     (0)  
C(4)          3.924e-04
   HCO3-           3.179e-04   2.702e-04    -3.498    -3.568    -0.071     (0)  
   CO2             6.274e-05   6.325e-05    -4.202    -4.199     0.003     (0)  
   MgHCO3+         5.214e-06   4.400e-06    -5.283    -5.357    -0.074     (0)  
   CaHCO3+         3.999e-06   3.400e-06    -5.398    -5.469    -0.071     (0)  
   NaHCO3          2.052e-06   2.069e-06    -5.688    -5.684     0.003     (0)  
   CO3-2           2.164e-07   1.130e-07    -6.665    -6.947    -0.282     (0)  
   CaCO3           1.911e-07   1.926e-07    -6.719    -6.715     0.003     (0)  
   MgCO3           1.321e-07   1.331e-07    -6.879    -6.876     0.003     (0)  
   NaCO3-          2.015e-08   1.700e-08    -7.696    -7.770    -0.074     (0)  
Ca            2.380e-03
   Ca+2            2.279e-03   1.192e-03    -2.642    -2.924    -0.282     (0)  
   CaSulfateO4     8.830e-05   8.901e-05    -4.054    -4.051     0.003     (0)  
   CaHPO4          7.746e-06   7.809e-06    -5.111    -5.107     0.003     (0)  
   CaHCO3+         3.999e-06   3.400e-06    -5.398    -5.469    -0.071     (0)  
   CaH2PO4+        6.534e-07   5.513e-07    -6.185    -6.259    -0.074     (0)  
   CaPO4-          2.021e-07   1.705e-07    -6.695    -6.768    -0.074     (0)  
   CaCO3           1.911e-07   1.926e-07    -6.719    -6.715     0.003     (0)  
   CaOH+           2.627e-09   2.216e-09    -8.581    -8.654    -0.074     (0)  
   CaHSulfateO4+   4.925e-11   4.155e-11   -10.308   -10.381    -0.074     (0)  
Cl            1.901e-02
   Cl-             1.901e-02   1.593e-02    -1.721    -1.798    -0.077     (0)  
   FerricCl+2      3.779e-17   1.916e-17   -16.423   -16.718    -0.295     (0)  
   FerricCl2+      2.243e-18   1.892e-18   -17.649   -17.723    -0.074     (0)  
   FerricCl3       2.991e-21   3.015e-21   -20.524   -20.521     0.003     (0)  
Cysteine      5.056e-04
   Cysteine-2      5.055e-04   2.563e-04    -3.296    -3.591    -0.295     (0)  
   H2(Cysteine)    1.218e-07   1.227e-07    -6.915    -6.911     0.003     (0)  
   H(Cysteine)-    1.389e-09   1.172e-09    -8.857    -8.931    -0.074     (0)  
Ferric        1.148e-08
   Ferric(OH)2+    6.461e-09   5.452e-09    -8.190    -8.263    -0.074     (0)  
   Ferric(OH)3     4.973e-09   5.014e-09    -8.303    -8.300     0.003     (0)  
   Ferric(OH)4-    4.007e-11   3.381e-11   -10.397   -10.471    -0.074     (0)  
   FerricOH+2      4.291e-12   2.175e-12   -11.367   -11.663    -0.295     (0)  
   FerricH2PO4+2   6.476e-16   3.283e-16   -15.189   -15.484    -0.295     (0)  
   FerricSulfateO4+   2.355e-16   1.987e-16   -15.628   -15.702    -0.074     (0)  
   Ferric+3        1.937e-16   5.527e-17   -15.713   -16.257    -0.545     (0)  
   FerricHPO4+     1.824e-16   1.539e-16   -15.739   -15.813    -0.074     (0)  
   FerricCl+2      3.779e-17   1.916e-17   -16.423   -16.718    -0.295     (0)  
   FerricCl2+      2.243e-18   1.892e-18   -17.649   -17.723    -0.074     (0)  
   Ferric(SulfateO4)2-   2.041e-18   1.722e-18   -17.690   -17.764    -0.074     (0)  
   FerricCl3       2.991e-21   3.015e-21   -20.524   -20.521     0.003     (0)  
   Ferric2(OH)2+4   2.957e-21   1.953e-22   -20.529   -21.709    -1.180     (0)  
   FerricHSulfateO4+2   9.550e-23   4.841e-23   -22.020   -22.315    -0.295     (0)  
   Ferric3(OH)4+5   4.035e-26   5.778e-28   -25.394   -27.238    -1.844     (0)  
Glutamine     5.056e-04
   Glutamine-2     5.056e-04   2.563e-04    -3.296    -3.591    -0.295     (0)  
   H(Glutamine)-   4.006e-09   3.380e-09    -8.397    -8.471    -0.074     (0)  
   H2(Glutamine)   2.726e-09   2.748e-09    -8.564    -8.561     0.003     (0)  
Glycine       5.056e-04
   Glycine-        5.056e-04   4.266e-04    -3.296    -3.370    -0.074     (0)  
   H2(Glycine)+    1.600e-08   1.350e-08    -7.796    -7.870    -0.074     (0)  
   H(Glycine)      8.255e-09   8.322e-09    -8.083    -8.080     0.003     (0)  
H(0)          5.184e-03
   H2              2.592e-03   2.613e-03    -2.586    -2.583     0.003     (0)  
K             1.456e-04
   K+              1.452e-04   1.217e-04    -3.838    -3.915    -0.077     (0)  
   KSulfateO4-     3.488e-07   2.943e-07    -6.457    -6.531    -0.074     (0)  
   KHPO4-          4.078e-09   3.441e-09    -8.390    -8.463    -0.074     (0)  
   KOH             4.691e-12   4.729e-12   -11.329   -11.325     0.003     (0)  
Mg            2.829e-03
   Mg+2            2.703e-03   1.439e-03    -2.568    -2.842    -0.274     (0)  
   MgSulfateO4     1.057e-04   1.066e-04    -3.976    -3.972     0.003     (0)  
   MgHPO4          1.265e-05   1.275e-05    -4.898    -4.894     0.003     (0)  
   MgHCO3+         5.214e-06   4.400e-06    -5.283    -5.357    -0.074     (0)  
   MgH2PO4+        1.005e-06   8.479e-07    -5.998    -6.072    -0.074     (0)  
   MgPO4-          3.292e-07   2.778e-07    -6.483    -6.556    -0.074     (0)  
   MgCO3           1.321e-07   1.331e-07    -6.879    -6.876     0.003     (0)  
   MgOH+           2.726e-08   2.301e-08    -7.564    -7.638    -0.074     (0)  
Na            1.613e-02
   Na+             1.610e-02   1.361e-02    -1.793    -1.866    -0.073     (0)  
   NaSulfateO4-    3.122e-05   2.635e-05    -4.506    -4.579    -0.074     (0)  
   NaHCO3          2.052e-06   2.069e-06    -5.688    -5.684     0.003     (0)  
   NaHPO4-         4.561e-07   3.849e-07    -6.341    -6.415    -0.074     (0)  
   NaCO3-          2.015e-08   1.700e-08    -7.696    -7.770    -0.074     (0)  
   NaOH            9.999e-10   1.008e-09    -9.000    -8.997     0.003     (0)  
O(0)          0.000e+00
   O2              0.000e+00   0.000e+00   -90.558   -90.554     0.003     (0)  
P             7.821e-05
   HPO4-2          2.903e-05   1.450e-05    -4.537    -4.839    -0.301     (0)  
   H2PO4-          2.614e-05   2.206e-05    -4.583    -4.656    -0.074     (0)  
   MgHPO4          1.265e-05   1.275e-05    -4.898    -4.894     0.003     (0)  
   CaHPO4          7.746e-06   7.809e-06    -5.111    -5.107     0.003     (0)  
   MgH2PO4+        1.005e-06   8.479e-07    -5.998    -6.072    -0.074     (0)  
   CaH2PO4+        6.534e-07   5.513e-07    -6.185    -6.259    -0.074     (0)  
   NaHPO4-         4.561e-07   3.849e-07    -6.341    -6.415    -0.074     (0)  
   MgPO4-          3.292e-07   2.778e-07    -6.483    -6.556    -0.074     (0)  
   CaPO4-          2.021e-07   1.705e-07    -6.695    -6.768    -0.074     (0)  
   KHPO4-          4.078e-09   3.441e-09    -8.390    -8.463    -0.074     (0)  
   PO4-3           2.843e-10   5.962e-11    -9.546   -10.225    -0.678     (0)  
   FerricH2PO4+2   6.476e-16   3.283e-16   -15.189   -15.484    -0.295     (0)  
   FerricHPO4+     1.824e-16   1.539e-16   -15.739   -15.813    -0.074     (0)  
Sulfate       1.029e-03
   SulfateO4-2     8.017e-04   4.123e-04    -3.096    -3.385    -0.289     (0)  
[...]
	H_cMg+            3.406e-03       0.089   1.806e-03      -2.743
	H_cH              7.521e-05       0.002   3.987e-05      -4.399

H_cd          
	  6.378e-05  moles
	                                   Mole                     Log
	Species               Moles    Fraction    Molality    Molality

	H_cdCa            3.265e-05       0.512   1.731e-05      -4.762
	H_cdMg            2.545e-05       0.399   1.349e-05      -4.870
	H_cd-2            5.505e-06       0.086   2.918e-06      -5.535
	H_cdH-            1.698e-07       0.003   8.999e-08      -7.046
	H_cdH2            4.064e-10       0.000   2.154e-10      -9.667

H_cf          
	  6.378e-02  moles
	                                   Mole                     Log
	Species               Moles    Fraction    Molality    Molality

	H_cfH-            6.012e-02       0.943   3.187e-02      -1.497
	H_cfCa            1.833e-03       0.029   9.716e-04      -3.013
	H_cfMg            1.365e-03       0.021   7.234e-04      -3.141
	H_cf-2            3.162e-04       0.005   1.676e-04      -3.776
	H_cfH2            1.439e-04       0.002   7.630e-05      -4.117

H_ch          
	  6.378e-02  moles
	                                   Mole                     Log
	Species               Moles    Fraction    Molality    Molality

	H_chH-            6.042e-02       0.947   3.203e-02      -1.494
	H_chCa            1.842e-03       0.029   9.765e-04      -3.010
	H_chMg            1.371e-03       0.022   7.270e-04      -3.138
	H_chH2            1.446e-04       0.002   7.668e-05      -4.115
	H_ch-2            6.639e-08       0.000   3.519e-08      -7.454

H_d           
	  3.837e-02  moles
	                                   Mole                     Log
	Species               Moles    Fraction    Molality    Molality

	H_dCa+            1.418e-02       0.370   7.517e-03      -2.124
	H_dMg+            1.392e-02       0.363   7.378e-03      -2.132
	H_d-              9.966e-03       0.260   5.283e-03      -2.277
	H_dH              3.073e-04       0.008   1.629e-04      -3.788

H_de          
	  6.378e-05  moles
	                                   Mole                     Log
	Species               Moles    Fraction    Molality    Molality

	H_deH-            3.067e-05       0.481   1.626e-05      -4.789
	H_deCa            1.204e-05       0.189   6.385e-06      -5.195
	H_de-2            1.116e-05       0.175   5.915e-06      -5.228
	H_deMg            8.966e-06       0.141   4.753e-06      -5.323
	H_deH2            9.457e-07       0.015   5.013e-07      -6.300

H_dg          
	  6.378e-05  moles
	                                   Mole                     Log
	Species               Moles    Fraction    Molality    Molality

	H_dgH-            3.717e-05       0.583   1.970e-05      -4.705
	H_dgCa            1.460e-05       0.229   7.738e-06      -5.111
	H_dgMg            1.087e-05       0.170   5.761e-06      -5.240
	H_dgH2            1.146e-06       0.018   6.076e-07      -6.216
	H_dg-2            2.825e-09       0.000   1.498e-09      -8.825

H_e           
	  1.919e-02  moles
	                                   Mole                     Log
	Species               Moles    Fraction    Molality    Molality

	H_eH              1.392e-02       0.726   7.382e-03      -2.132
	H_e-              5.066e-03       0.264   2.686e-03      -2.571
	H_eCa+            1.042e-04       0.005   5.524e-05      -4.258
	H_eMg+            9.544e-05       0.005   5.059e-05      -4.296

H_f           
	  1.919e-02  moles
	                                   Mole                     Log
	Species               Moles    Fraction    Molality    Molality

	H_fH              1.882e-02       0.981   9.978e-03      -2.001
	H_fCa+            1.408e-04       0.007   7.466e-05      -4.127
	H_fMg+            1.290e-04       0.007   6.839e-05      -4.165
	H_f-              9.898e-05       0.005   5.247e-05      -4.280

H_g           
	  1.919e-02  moles
	                                   Mole                     Log
	Species               Moles    Fraction    Molality    Molality

	H_gH              1.892e-02       0.986   1.003e-02      -1.999
	H_gCa+            1.416e-04       0.007   7.505e-05      -4.125
	H_gMg+            1.297e-04       0.007   6.874e-05      -4.163
	H_g-              1.438e-06       0.000   7.623e-07      -6.118

H_h           
	  1.919e-02  moles
	                                   Mole                     Log
	Species               Moles    Fraction    Molality    Molality

	H_hH              1.892e-02       0.986   1.003e-02      -1.999
	H_hCa+            1.416e-04       0.007   7.505e-05      -4.125
	H_hMg+            1.297e-04       0.007   6.874e-05      -4.163
	H_h-              2.079e-08       0.000   1.102e-08      -7.958

Hfo           
	 -2.246e-16  Surface + diffuse layer charge, eq
	 -1.458e-06  Surface charge, eq
	 -1.172e-02  sigma, C/m²
	 -1.553e-02  psi, V
	  6.256e-01  -F*psi/RT
	  1.869e+00  exp(-F*psi/RT)
	  6.000e+02  specific area, m²/g
	  1.200e+01  m² for   2.000e-02 g

	Water in diffuse layer: 1.200e-08 kg,  0.0% of total DDL-water.

	Total moles in diffuse layer (excluding water), Donnan calculation.
	Donnan Layer potential, psi_DL = -1.026e-01 V.
	Boltzmann factor, exp(-psi_DL * F / RT) = 6.240e+01 (= c_DL / c_free if z is +1).

	Element       	     Moles
	Alanine       	  1.7907e-15
	Amm           	  4.1821e-10
	C             	  1.1956e-10
	Ca            	  3.2533e-07
	Cl            	  1.1778e-11
	Cysteine      	  3.4336e-15
	Ferric        	  7.3735e-15
	Glutamine     	  1.6016e-15
	Glycine       	  1.1813e-13
	H             	  2.2582e-09
	K             	  1.2298e-09
	Mg            	  3.8655e-07
	Na            	  3.2602e-08
	O             	  4.3384e-10
	P             	  2.7788e-12
	Sulfate       	  1.7566e-11
	Threonine     	  1.6006e-15
	Tyrosine      	  1.5997e-15

Hfo_s         
	  6.000e-06  moles
	                                   Mole                     Log
	Species               Moles    Fraction    Molality    Molality

	Hfo_sOHCa+2       5.965e-06       0.994   3.162e-06      -5.500
	Hfo_sOH2+         2.816e-08       0.005   1.493e-08      -7.826
	Hfo_sOH           6.584e-09       0.001   3.491e-09      -8.457
	Hfo_sO-           3.527e-11       0.000   1.870e-11     -10.728

Hfo_w         
	  2.400e-03  moles
	                                   Mole                     Log
	Species               Moles    Fraction    Molality    Molality

	Hfo_wHPO4-        9.007e-04       0.375   4.775e-04      -3.321
	Hfo_wOH2+         7.977e-04       0.332   4.229e-04      -3.374
	Hfo_wOMg+         2.563e-04       0.107   1.359e-04      -3.867
	Hfo_wOH           1.866e-04       0.078   9.890e-05      -4.005
	Hfo_wH2PO4        1.569e-04       0.065   8.318e-05      -4.080
	Hfo_wPO4-2        8.780e-05       0.037   4.655e-05      -4.332
	Hfo_wOCa+         1.166e-05       0.005   6.183e-06      -5.209
	Hfo_wO-           9.994e-07       0.000   5.298e-07      -6.276
	Hfo_wSulfateO4-   9.422e-07       0.000   4.995e-07      -6.302
	Hfo_wOHSulfateO4-2   4.385e-07       0.000   2.324e-07      -6.634

-----------------------------Exchange composition------------------------------

X                2.000e-01 mol

	                               Equiv-    Equivalent      Log 
	Species             Moles      alents      Fraction     Gamma

	MgX2              4.393e-02   8.785e-02   4.393e-01     0.000
	NaX               4.360e-02   4.360e-02   2.180e-01     0.000
	CaX2              2.824e-02   5.648e-02   2.824e-01     0.000
	KX                1.112e-02   1.112e-02   5.561e-02    -0.114
	AmmH4X            9.478e-04   9.478e-04   4.739e-03     0.000
	HX                1.802e-06   1.802e-06   9.008e-06    -0.082

-----------------------------Solution composition------------------------------

	Elements           Molality       Moles

	Alanine           5.058e-04   9.541e-04
	Amm               5.686e-04   1.073e-03
	C                 2.904e-03   5.478e-03
	Ca                7.695e-03   1.452e-02
	Cl                6.124e-02   1.155e-01
	Cysteine          5.058e-04   9.541e-04
	Ferric            1.409e-08   2.658e-08
	Glutamine         5.058e-04   9.541e-04
	Glycine           5.058e-04   9.541e-04
	K                 1.655e-03   3.122e-03
	Mg                9.181e-03   1.732e-02
	Na                4.384e-02   8.271e-02
	P                 7.819e-05   1.475e-04
	Sulfate           5.248e-03   9.899e-03
	Threonine         5.058e-04   9.541e-04
	Tyrosine          5.058e-04   9.541e-04

----------------------------Description of solution----------------------------

                                       pH  =   6.931      Charge balance
                                       pe  =  -7.633      Adjusted to redox equilibrium
      Specific Conductance (µS/cm,  15°C)  = 5903
                        Activity of water  =   0.997
                 Ionic strength (mol/kgw)  =   9.764e-02
                       Mass of water (kg)  =   1.886e+00
                 Total alkalinity (eq/kg)  =   5.474e-03
                       Total CO2 (mol/kg)  =   2.904e-03
                         Temperature (°C)  =  15.00
                  Electrical balance (eq)  =  -1.030e-11
 Percent error, 100*(Cat-|An|)/(Cat+|An|)  =  -0.00
                               Iterations  =   1
                                  Total H  = 2.094913e+02
                                  Total O  = 1.047601e+02

----------------------------Distribution of species----------------------------

                                               Log       Log       Log    mole V
   Species          Molality    Activity  Molality  Activity     Gamma   cm³/mol

   H+              1.416e-07   1.173e-07    -6.849    -6.931    -0.082      0.00
   OH-             4.999e-08   3.832e-08    -7.301    -7.417    -0.115     (0)  
   H2O             5.551e+01   9.974e-01     1.744    -0.001     0.000     18.03
Alanine       5.058e-04
   Alanine-2       5.058e-04   1.927e-04    -3.296    -3.715    -0.419     (0)  
   H2(Alanine)     1.923e-08   1.967e-08    -7.716    -7.706     0.010     (0)  
   H(Alanine)-     6.443e-09   5.062e-09    -8.191    -8.296    -0.105     (0)  
Amm           5.686e-04
   AmmH4+          5.585e-04   4.189e-04    -3.253    -3.378    -0.125     (0)  
   AmmH4SulfateO4-   9.149e-06   7.189e-06    -5.039    -5.143    -0.105     (0)  
   AmmH3           9.571e-07   9.789e-07    -6.019    -6.009     0.010     (0)  
C(4)          2.904e-03
   HCO3-           2.192e-03   1.737e-03    -2.659    -2.760    -0.101     (0)  
   CO2             5.240e-04   5.359e-04    -3.281    -3.271     0.010     (0)  
   MgHCO3+         8.585e-05   6.745e-05    -4.066    -4.171    -0.105     (0)  
   CaHCO3+         6.428e-05   5.094e-05    -4.192    -4.293    -0.101     (0)  
   NaHCO3          3.273e-05   3.347e-05    -4.485    -4.475     0.010     (0)  
   CaCO3           2.144e-06   2.193e-06    -5.669    -5.659     0.010     (0)  
   MgCO3           1.516e-06   1.551e-06    -5.819    -5.809     0.010     (0)  
   CO3-2           1.400e-06   5.521e-07    -5.854    -6.258    -0.404     (0)  
   NaCO3-          2.661e-07   2.091e-07    -6.575    -6.680    -0.105     (0)  
Ca            7.695e-03
   Ca+2            6.961e-03   2.778e-03    -2.157    -2.556    -0.399     (0)  
   CaSulfateO4     6.554e-04   6.703e-04    -3.183    -3.174     0.010     (0)  
   CaHCO3+         6.428e-05   5.094e-05    -4.192    -4.293    -0.101     (0)  
   CaHPO4          1.047e-05   1.070e-05    -4.980    -4.970     0.010     (0)  
   CaCO3           2.144e-06   2.193e-06    -5.669    -5.659     0.010     (0)  
   CaH2PO4+        1.266e-06   9.944e-07    -5.898    -6.002    -0.105     (0)  
   CaPO4-          2.261e-07   1.776e-07    -6.646    -6.751    -0.105     (0)  
   CaOH+           4.989e-09   3.920e-09    -8.302    -8.407    -0.105     (0)  
   CaHSulfateO4+   5.241e-10   4.118e-10    -9.281    -9.385    -0.105     (0)  
Cl            6.124e-02
   Cl-             6.124e-02   4.710e-02    -1.213    -1.327    -0.114     (0)  
   FerricCl+2      3.405e-16   1.297e-16   -15.468   -15.887    -0.419     (0)  
   FerricCl2+      4.823e-17   3.790e-17   -16.317   -16.421    -0.105     (0)  
   FerricCl3       1.745e-19   1.785e-19   -18.758   -18.748     0.010     (0)  
Cysteine      5.058e-04
   Cysteine-2      5.056e-04   1.927e-04    -3.296    -3.715    -0.419     (0)  
   H2(Cysteine)    1.563e-07   1.598e-07    -6.806    -6.796     0.010     (0)  
   H(Cysteine)-    1.476e-09   1.159e-09    -8.831    -8.936    -0.105     (0)  
Ferric        1.409e-08
   Ferric(OH)2+    9.147e-09   7.187e-09    -8.039    -8.143    -0.105     (0)  
   Ferric(OH)3     4.902e-09   5.014e-09    -8.310    -8.300     0.010     (0)  
   Ferric(OH)4-    3.264e-11   2.565e-11   -10.486   -10.591    -0.105     (0)  
   FerricOH+2      9.919e-12   3.780e-12   -11.004   -11.423    -0.419     (0)  
   FerricSulfateO4+   1.872e-15   1.471e-15   -14.728   -14.832    -0.105     (0)  
   FerricH2PO4+2   1.527e-15   5.818e-16   -14.816   -15.235    -0.419     (0)  
   Ferric+3        6.880e-16   1.266e-16   -15.162   -15.897    -0.735     (0)  
   FerricCl+2      3.405e-16   1.297e-16   -15.468   -15.887    -0.419     (0)  
   FerricHPO4+     2.639e-16   2.074e-16   -15.579   -15.683    -0.105     (0)  
   Ferric(SulfateO4)2-   5.239e-17   4.116e-17   -16.281   -16.385    -0.105     (0)  
   FerricCl2+      4.823e-17   3.790e-17   -16.317   -16.421    -0.105     (0)  
   FerricCl3       1.745e-19   1.785e-19   -18.758   -18.748     0.010     (0)  
   Ferric2(OH)2+4   2.796e-20   5.897e-22   -19.553   -21.229    -1.676     (0)  
   FerricHSulfateO4+2   1.237e-21   4.714e-22   -20.908   -21.327    -0.419     (0)  
   Ferric3(OH)4+5   9.561e-25   2.300e-27   -24.020   -26.638    -2.619     (0)  
Glutamine     5.058e-04
   Glutamine-2     5.058e-04   1.927e-04    -3.296    -3.715    -0.419     (0)  
   H(Glutamine)-   4.257e-09   3.345e-09    -8.371    -8.476    -0.105     (0)  
   H2(Glutamine)   3.499e-09   3.579e-09    -8.456    -8.446     0.010     (0)  
Glycine       5.058e-04
   Glycine-        5.058e-04   3.974e-04    -3.296    -3.401    -0.105     (0)  
   H2(Glycine)+    2.771e-08   2.177e-08    -7.557    -7.662    -0.105     (0)  
   H(Glycine)      9.972e-09   1.020e-08    -8.001    -7.991     0.010     (0)  
H(0)          3.889e-02
   H2              1.945e-02   1.989e-02    -1.711    -1.701     0.010     (0)  
K             1.655e-03
   K+              1.642e-03   1.263e-03    -2.785    -2.899    -0.114     (0)  
   KSulfateO4-     1.256e-05   9.869e-06    -4.901    -5.006    -0.105     (0)  
   KHPO4-          2.673e-08   2.100e-08    -7.573    -7.678    -0.105     (0)  
   KOH             3.641e-11   3.723e-11   -10.439   -10.429     0.010     (0)  
Mg            9.181e-03
   Mg+2            8.271e-03   3.432e-03    -2.082    -2.464    -0.382     (0)  
   MgSulfateO4     8.028e-04   8.210e-04    -3.095    -3.086     0.010     (0)  
   MgHCO3+         8.585e-05   6.745e-05    -4.066    -4.171    -0.105     (0)  
   MgHPO4          1.748e-05   1.788e-05    -4.757    -4.748     0.010     (0)  
   MgH2PO4+        1.991e-06   1.565e-06    -5.701    -5.806    -0.105     (0)  
   MgCO3           1.516e-06   1.551e-06    -5.819    -5.809     0.010     (0)  
   MgPO4-          3.768e-07   2.960e-07    -6.424    -6.529    -0.105     (0)  
   MgOH+           5.297e-08   4.162e-08    -7.276    -7.381    -0.105     (0)  
Na            4.384e-02
   Na+             4.354e-02   3.427e-02    -1.361    -1.465    -0.104     (0)  
   NaSulfateO4-    2.727e-04   2.142e-04    -3.564    -3.669    -0.105     (0)  
   NaHCO3          3.273e-05   3.347e-05    -4.485    -4.475     0.010     (0)  
   NaHPO4-         7.251e-07   5.697e-07    -6.140    -6.244    -0.105     (0)  
   NaCO3-          2.661e-07   2.091e-07    -6.575    -6.680    -0.105     (0)  
   NaOH            1.882e-09   1.925e-09    -8.725    -8.716     0.010     (0)  
O(0)          0.000e+00
   O2              0.000e+00   0.000e+00   -92.328   -92.319     0.010     (0)  
P             7.819e-05
   HPO4-2          2.376e-05   8.526e-06    -4.624    -5.069    -0.445     (0)  
   H2PO4-          2.186e-05   1.707e-05    -4.660    -4.768    -0.107     (0)  
   MgHPO4          1.748e-05   1.788e-05    -4.757    -4.748     0.010     (0)  
   CaHPO4          1.047e-05   1.070e-05    -4.980    -4.970     0.010     (0)  
   MgH2PO4+        1.991e-06   1.565e-06    -5.701    -5.806    -0.105     (0)  
   CaH2PO4+        1.266e-06   9.944e-07    -5.898    -6.002    -0.105     (0)  
   NaHPO4-         7.251e-07   5.697e-07    -6.140    -6.244    -0.105     (0)  
   MgPO4-          3.768e-07   2.960e-07    -6.424    -6.529    -0.105     (0)  
   CaPO4-          2.261e-07   1.776e-07    -6.646    -6.751    -0.105     (0)  
   KHPO4-          2.673e-08   2.100e-08    -7.573    -7.678    -0.105     (0)  
   PO4-3           2.674e-10   2.664e-11    -9.573   -10.574    -1.002     (0)  
   FerricH2PO4+2   1.527e-15   5.818e-16   -14.816   -15.235    -0.419     (0)  
   FerricHPO4+     2.639e-16   2.074e-16   -15.579   -15.683    -0.105     (0)  
Sulfate       5.248e-03
   SulfateO4-2     3.495e-03   1.332e-03    -2.457    -2.875    -0.419     (0)  
   MgSulfateO4     8.028e-04   8.210e-04    -3.095    -3.086     0.010     (0)  
   CaSulfateO4     6.554e-04   6.703e-04    -3.183    -3.174     0.010     (0)  
   NaSulfateO4-    2.727e-04   2.142e-04    -3.564    -3.669    -0.105     (0)  
   KSulfateO4-     1.256e-05   9.869e-06    -4.901    -5.006    -0.105     (0)  
   AmmH4SulfateO4-   9.149e-06   7.189e-06    -5.039    -5.143    -0.105     (0)  
   HSulfateO4-     1.569e-08   1.233e-08    -7.804    -7.909    -0.105     (0)  
   CaHSulfateO4+   5.241e-10   4.118e-10    -9.281    -9.385    -0.105     (0)  
   FerricSulfateO4+   1.872e-15   1.471e-15   -14.728   -14.832    -0.105     (0)  
   Ferric(SulfateO4)2-   5.239e-17   4.116e-17   -16.281   -16.385    -0.105     (0)  
   FerricHSulfateO4+2   1.237e-21   4.714e-22   -20.908   -21.327    -0.419     (0)  
Threonine     5.058e-04
   Threonine-2     5.058e-04   1.927e-04    -3.296    -3.715    -0.419     (0)  
   H(Threonine)-   4.065e-09   3.194e-09    -8.391    -8.496    -0.105     (0)  
   H2(Threonine)   3.419e-09   3.497e-09    -8.466    -8.456     0.010     (0)  
Tyrosine      5.058e-04
   Tyrosine-2      5.058e-04   1.927e-04    -3.296    -3.715    -0.419     (0)  
   H(Tyrosine)-    4.561e-09   3.584e-09    -8.341    -8.446    -0.105     (0)  
   H2(Tyrosine)    3.342e-09   3.418e-09    -8.476    -8.466     0.010     (0)  

------------------------------Saturation indices-------------------------------

  Phase               SI** log IAP   log K(288 K,   1 atm)

  FixpH            -6.93     -6.93    0.00  H+
  H2(g)             1.40     -1.70   -3.11  H2
  H2O(g)           -1.78     -0.00    1.78  H2O
  Halite           -4.35     -2.79    1.56  NaCl
  Hydroxyapatite    2.23     -0.27   -2.50  Ca5(PO4)3OH
  redoxAnhydrite   -1.10     -5.43   -4.34  CaSulfateO4
  redoxAragonite   -0.54     -8.81   -8.28  CaCO3
  redoxCalcite     -0.38     -8.81   -8.43  CaCO3
  redoxCO2(g)      -1.93     -3.27   -1.34  CO2
  redoxDolomite    -0.69    -17.54  -16.85  CaMg(CO3)2
  redoxFe(OH)3(a)   0.00      4.89    4.89  Ferric(OH)3
  redoxGoethite     5.52      4.89   -0.63  FerricOOH
  redoxGypsum      -0.85     -5.43   -4.58  CaSulfateO4:2H2O
  redoxHematite    13.01      9.79   -3.22  Ferric2O3
  redoxJarosite-K  -6.35    -14.77   -8.41  KFerric3(SulfateO4)2(OH)6
  redoxNH3(g)      -7.99     -6.01    1.98  AmmH3

**For a gas, SI = log10(fugacity). Fugacity = pressure * phi / 1 atm.
  For ideal gases, phi = 1.

------------------
End of simulation.
------------------

------------------------------------
Reading input data for simulation 4.
------------------------------------

----------------------------------
End of Run after 0.097712 Seconds.
----------------------------------

