   Input file: vanD_peat_fresh_exchange.phrq
  Output file: vanD_peat_fresh_exchange.phrq.out
Database file: ../database/redox.dat

------------------
Reading data base.
------------------

	SOLUTION_MASTER_SPECIES
	SOLUTION_SPECIES
	PHASES
	EXCHANGE_MASTER_SPECIES
	EXCHANGE_SPECIES
	SURFACE_MASTER_SPECIES
	SURFACE_SPECIES
	RATES
	END
------------------------------------
Reading input data for simulation 1.
------------------------------------

	DATABASE ../database/redox.dat
	TITLE simulate soil solution
	CALCULATE_VALUES
	SC_T25
	start
	10 sc25 = SC/(1+0.021*(temperature-25))
	20 SAVE sc25
	end
	SOLUTION 1
	units umol/L   #3.774L total volume
	pH    7  charge
	temperature 	 15
	water         1.887   #default is 1 kg
	P           81.88
	Amm         344
	Na          11950
	Ca          1520
	Cl          12500 
	Sulfate        380 
	K           1.3
	Mg          1810
	C(4)        5.37  
	Nitrate        0
	Ferric       0.61
	Alanine      505
	Cysteine     505
	Glycine      505
	Glutamine    505
	Threonine    505
	Tyrosine     505
	  SAVE SOLUTION 1
	END
-----
TITLE
-----

 simulate soil solution

-------------------------------------------
Beginning of initial solution calculations.
-------------------------------------------

Initial solution 1.	

-----------------------------Solution composition------------------------------

	Elements           Molality       Moles

	Alanine           5.056e-04   9.541e-04
	Amm               3.444e-04   6.499e-04
	C(4)              5.377e-06   1.015e-05
	Ca                1.522e-03   2.872e-03
	Cl                1.252e-02   2.362e-02
	Cysteine          5.056e-04   9.541e-04
	Ferric            6.108e-07   1.152e-06
	Glutamine         5.056e-04   9.541e-04
	Glycine           5.056e-04   9.541e-04
	K                 1.302e-06   2.456e-06
	Mg                1.812e-03   3.420e-03
	Na                1.196e-02   2.258e-02
	P                 8.198e-05   1.547e-04
	Sulfate           3.805e-04   7.179e-04
	Threonine         5.056e-04   9.541e-04
	Tyrosine          5.056e-04   9.541e-04

----------------------------Description of solution----------------------------

                                       pH  =   7.116      Charge balance
                                       pe  =   4.000    
      Specific Conductance (µS/cm,  15°C)  = 1380
                        Activity of water  =   0.999
                 Ionic strength (mol/kgw)  =   2.494e-02
                       Mass of water (kg)  =   1.887e+00
                 Total alkalinity (eq/kg)  =   3.093e-03
                       Total CO2 (mol/kg)  =   5.377e-06
                         Temperature (°C)  =  15.00
                  Electrical balance (eq)  =   7.921e-16
 Percent error, 100*(Cat-|An|)/(Cat+|An|)  =   0.00
                               Iterations  =   9
                                  Total H  = 2.094833e+02
                                  Total O  = 1.047438e+02

----------------------------Distribution of species----------------------------

                                               Log       Log       Log    mole V
   Species          Molality    Activity  Molality  Activity     Gamma   cm³/mol

   H+              8.667e-08   7.652e-08    -7.062    -7.116    -0.054      0.00
   OH-             6.871e-08   5.887e-08    -7.163    -7.230    -0.067     (0)  
   H2O             5.551e+01   9.995e-01     1.744    -0.000     0.000     18.03
Alanine       5.056e-04
   Alanine-2       5.056e-04   2.787e-04    -3.296    -3.555    -0.259     (0)  
   H2(Alanine)     1.203e-08   1.210e-08    -7.920    -7.917     0.002     (0)  
   H(Alanine)-     5.541e-09   4.774e-09    -8.256    -8.321    -0.065     (0)  
Amm           3.444e-04
   AmmH4+          3.426e-04   2.915e-04    -3.465    -3.535    -0.070     (0)  
   AmmH3           1.038e-06   1.044e-06    -5.984    -5.981     0.002     (0)  
   AmmH4SulfateO4-   7.595e-07   6.545e-07    -6.119    -6.184    -0.065     (0)  
C(4)          5.377e-06
   HCO3-           4.480e-06   3.884e-06    -5.349    -5.411    -0.062     (0)  
   CO2             7.756e-07   7.800e-07    -6.110    -6.108     0.002     (0)  
   MgHCO3+         5.167e-08   4.452e-08    -7.287    -7.351    -0.065     (0)  
   CaHCO3+         3.977e-08   3.448e-08    -7.400    -7.462    -0.062     (0)  
   NaHCO3          2.241e-08   2.254e-08    -7.649    -7.647     0.002     (0)  
   CO3-2           3.349e-09   1.893e-09    -8.475    -8.723    -0.248     (0)  
   CaCO3           2.263e-09   2.276e-09    -8.645    -8.643     0.002     (0)  
   MgCO3           1.560e-09   1.569e-09    -8.807    -8.804     0.002     (0)  
   NaCO3-          2.505e-10   2.159e-10    -9.601    -9.666    -0.065     (0)  
Ca            1.522e-03
   Ca+2            1.488e-03   8.409e-04    -2.827    -3.075    -0.248     (0)  
   CaSulfateO4     2.639e-05   2.655e-05    -4.578    -4.576     0.002     (0)  
   CaHPO4          6.946e-06   6.986e-06    -5.158    -5.156     0.002     (0)  
   CaH2PO4+        4.913e-07   4.233e-07    -6.309    -6.373    -0.065     (0)  
   CaPO4-          2.063e-07   1.777e-07    -6.686    -6.750    -0.065     (0)  
   CaHCO3+         3.977e-08   3.448e-08    -7.400    -7.462    -0.062     (0)  
   CaCO3           2.263e-09   2.276e-09    -8.645    -8.643     0.002     (0)  
   CaOH+           2.115e-09   1.823e-09    -8.675    -8.739    -0.065     (0)  
   CaHSulfateO4+   1.235e-11   1.064e-11   -10.908   -10.973    -0.065     (0)  
Cl            1.252e-02
   Cl-             1.252e-02   1.073e-02    -1.903    -1.969    -0.067     (0)  
   FerricCl+2      8.635e-16   4.760e-16   -15.064   -15.322    -0.259     (0)  
   FerricCl2+      3.676e-17   3.168e-17   -16.435   -16.499    -0.065     (0)  
   FerricCl3       3.380e-20   3.400e-20   -19.471   -19.469     0.002     (0)  
Cysteine      5.056e-04
   Cysteine-2      5.055e-04   2.786e-04    -3.296    -3.555    -0.259     (0)  
   H2(Cysteine)    9.776e-08   9.832e-08    -7.010    -7.007     0.002     (0)  
   H(Cysteine)-    1.269e-09   1.094e-09    -8.896    -8.961    -0.065     (0)  
Ferric        6.108e-07
   Ferric(OH)2+    3.169e-07   2.731e-07    -6.499    -6.564    -0.065     (0)  
   Ferric(OH)3     2.910e-07   2.927e-07    -6.536    -6.534     0.002     (0)  
   Ferric(OH)4-    2.669e-09   2.300e-09    -8.574    -8.638    -0.065     (0)  
   FerricOH+2      1.696e-10   9.348e-11    -9.771   -10.029    -0.259     (0)  
   FerricH2PO4+2   2.390e-14   1.317e-14   -13.622   -13.880    -0.259     (0)  
   FerricHPO4+     8.354e-15   7.198e-15   -14.078   -14.143    -0.065     (0)  
   Ferric+3        6.254e-15   2.039e-15   -14.204   -14.691    -0.487     (0)  
   FerricSulfateO4+   3.596e-15   3.098e-15   -14.444   -14.509    -0.065     (0)  
   FerricCl+2      8.635e-16   4.760e-16   -15.064   -15.322    -0.259     (0)  
   FerricCl2+      3.676e-17   3.168e-17   -16.435   -16.499    -0.065     (0)  
   Ferric(SulfateO4)2-   1.317e-17   1.134e-17   -16.881   -16.945    -0.065     (0)  
   Ferric2(OH)2+4   3.908e-18   3.607e-19   -17.408   -18.443    -1.035     (0)  
   FerricCl3       3.380e-20   3.400e-20   -19.471   -19.469     0.002     (0)  
   Ferric3(OH)4+5   2.213e-21   5.347e-23   -20.655   -22.272    -1.617     (0)  
   FerricHSulfateO4+2   1.175e-21   6.477e-22   -20.930   -21.189    -0.259     (0)  
Glutamine     5.056e-04
   Glutamine-2     5.056e-04   2.787e-04    -3.296    -3.555    -0.259     (0)  
   H(Glutamine)-   3.661e-09   3.154e-09    -8.436    -8.501    -0.065     (0)  
   H2(Glutamine)   2.189e-09   2.202e-09    -8.660    -8.657     0.002     (0)  
Glycine       5.056e-04
   Glycine-        5.056e-04   4.357e-04    -3.296    -3.361    -0.065     (0)  
   H2(Glycine)+    1.179e-08   1.016e-08    -7.929    -7.993    -0.065     (0)  
   H(Glycine)      7.252e-09   7.293e-09    -8.140    -8.137     0.002     (0)  
H(0)          9.138e-26
   H2              4.569e-26   4.596e-26   -25.340   -25.338     0.002     (0)  
K             1.302e-06
   K+              1.300e-06   1.115e-06    -5.886    -5.953    -0.067     (0)  
   KSulfateO4-     1.323e-09   1.140e-09    -8.878    -8.943    -0.065     (0)  
   KHPO4-          4.639e-11   3.997e-11   -10.334   -10.398    -0.065     (0)  
   KOH             5.021e-14   5.050e-14   -13.299   -13.297     0.002     (0)  
Mg            1.812e-03
   Mg+2            1.768e-03   1.013e-03    -2.752    -2.994    -0.242     (0)  
   MgSulfateO4     3.153e-05   3.171e-05    -4.501    -4.499     0.002     (0)  
   MgHPO4          1.132e-05   1.138e-05    -4.946    -4.944     0.002     (0)  
   MgH2PO4+        7.538e-07   6.495e-07    -6.123    -6.187    -0.065     (0)  
   MgPO4-          3.352e-07   2.889e-07    -6.475    -6.539    -0.065     (0)  
   MgHCO3+         5.167e-08   4.452e-08    -7.287    -7.351    -0.065     (0)  
   MgOH+           2.191e-08   1.887e-08    -7.659    -7.724    -0.065     (0)  
   MgCO3           1.560e-09   1.569e-09    -8.807    -8.804     0.002     (0)  
Na            1.196e-02
   Na+             1.195e-02   1.032e-02    -1.922    -1.986    -0.064     (0)  
   NaSulfateO4-    9.798e-06   8.443e-06    -5.009    -5.074    -0.065     (0)  
   NaHPO4-         4.294e-07   3.700e-07    -6.367    -6.432    -0.065     (0)  
   NaHCO3          2.241e-08   2.254e-08    -7.649    -7.647     0.002     (0)  
   NaOH            8.855e-10   8.906e-10    -9.053    -9.050     0.002     (0)  
   NaCO3-          2.505e-10   2.159e-10    -9.601    -9.666    -0.065     (0)  
O(0)          0.000e+00
   O2              0.000e+00   0.000e+00   -45.047   -45.044     0.002     (0)  
P             8.198e-05
   HPO4-2          3.366e-05   1.838e-05    -4.473    -4.736    -0.263     (0)  
   H2PO4-          2.784e-05   2.401e-05    -4.555    -4.620    -0.064     (0)  
   MgHPO4          1.132e-05   1.138e-05    -4.946    -4.944     0.002     (0)  
   CaHPO4          6.946e-06   6.986e-06    -5.158    -5.156     0.002     (0)  
   MgH2PO4+        7.538e-07   6.495e-07    -6.123    -6.187    -0.065     (0)  
   CaH2PO4+        4.913e-07   4.233e-07    -6.309    -6.373    -0.065     (0)  
   NaHPO4-         4.294e-07   3.700e-07    -6.367    -6.432    -0.065     (0)  
   MgPO4-          3.352e-07   2.889e-07    -6.475    -6.539    -0.065     (0)  
   CaPO4-          2.063e-07   1.777e-07    -6.686    -6.750    -0.065     (0)  
   PO4-3           3.435e-10   8.807e-11    -9.464   -10.055    -0.591     (0)  
   KHPO4-          4.639e-11   3.997e-11   -10.334   -10.398    -0.065     (0)  
   FerricH2PO4+2   2.390e-14   1.317e-14   -13.622   -13.880    -0.259     (0)  
   FerricHPO4+     8.354e-15   7.198e-15   -14.078   -14.143    -0.065     (0)  
Sulfate       3.805e-04
   SulfateO4-2     3.120e-04   1.743e-04    -3.506    -3.759    -0.253     (0)  
   MgSulfateO4     3.153e-05   3.171e-05    -4.501    -4.499     0.002     (0)  
   CaSulfateO4     2.639e-05   2.655e-05    -4.578    -4.576     0.002     (0)  
   NaSulfateO4-    9.798e-06   8.443e-06    -5.009    -5.074    -0.065     (0)  
   AmmH4SulfateO4-   7.595e-07   6.545e-07    -6.119    -6.184    -0.065     (0)  
   KSulfateO4-     1.323e-09   1.140e-09    -8.878    -8.943    -0.065     (0)  
   HSulfateO4-     1.221e-09   1.052e-09    -8.913    -8.978    -0.065     (0)  
   CaHSulfateO4+   1.235e-11   1.064e-11   -10.908   -10.973    -0.065     (0)  
   FerricSulfateO4+   3.596e-15   3.098e-15   -14.444   -14.509    -0.065     (0)  
   Ferric(SulfateO4)2-   1.317e-17   1.134e-17   -16.881   -16.945    -0.065     (0)  
   FerricHSulfateO4+2   1.175e-21   6.477e-22   -20.930   -21.189    -0.259     (0)  
Threonine     5.056e-04
   Threonine-2     5.056e-04   2.787e-04    -3.296    -3.555    -0.259     (0)  
   H(Threonine)-   3.496e-09   3.012e-09    -8.456    -8.521    -0.065     (0)  
   H2(Threonine)   2.139e-09   2.151e-09    -8.670    -8.667     0.002     (0)  
Tyrosine      5.056e-04
   Tyrosine-2      5.056e-04   2.787e-04    -3.296    -3.555    -0.259     (0)  
   H(Tyrosine)-    3.923e-09   3.380e-09    -8.406    -8.471    -0.065     (0)  
   H2(Tyrosine)    2.090e-09   2.102e-09    -8.680    -8.677     0.002     (0)  

------------------------------Saturation indices-------------------------------

  Phase               SI** log IAP   log K(288 K,   1 atm)

  FixpH            -7.12     -7.12    0.00  H+
  H2(g)           -22.23    -25.34   -3.11  H2
  H2O(g)           -1.78     -0.00    1.78  H2O
  Halite           -5.51     -3.96    1.56  NaCl
  Hydroxyapatite    1.38     -1.12   -2.50  Ca5(PO4)3OH
  redoxAnhydrite   -2.50     -6.83   -4.34  CaSulfateO4
  redoxAragonite   -3.52    -11.80   -8.28  CaCO3
  redoxCalcite     -3.37    -11.80   -8.43  CaCO3
  redoxCO2(g)      -4.77     -6.11   -1.34  CO2
  redoxDolomite    -6.67    -23.52  -16.85  CaMg(CO3)2
  redoxFe(OH)3(a)   1.77      6.66    4.89  Ferric(OH)3
  redoxGoethite     7.29      6.66   -0.63  FerricOOH
  redoxGypsum      -2.25     -6.83   -4.58  CaSulfateO4:2H2O
  redoxHematite    16.54     13.32   -3.22  Ferric2O3
  redoxJarosite-K  -6.43    -14.85   -8.41  KFerric3(SulfateO4)2(OH)6
  redoxNH3(g)      -7.96     -5.98    1.98  AmmH3

**For a gas, SI = log10(fugacity). Fugacity = pressure * phi / 1 atm.
  For ideal gases, phi = 1.

------------------
End of simulation.
------------------

------------------------------------
Reading input data for simulation 2.
------------------------------------

	GAS_PHASE 1 
	  fixed_pressure  1.0
	  temperature 	 15
	  redoxCO2(g) 0.0
	  SAVE GAS_PHASE 1
	END
------------------
End of simulation.
------------------

------------------------------------
Reading input data for simulation 3.
------------------------------------

	USE SOLUTION 1
	USE GAS_PHASE 1
	EXCHANGE_SPECIES
	 X- = X-
	 log_k 0     #semicolon is logical end of line
	 X- + AmmH4+ = AmmH4X
	  log_k  0.25   #define the half-reactions of ion change
	 2X- + Ca+2  = CaX2
	    log_k  0.4    $logK's relative 
	 2X- + Mg+2  = MgX2
	    log_k  0.5
	 X- + Na+  = NaX
	       log_k  0.0
	EXCHANGE 1   #exchanger in equilibirium 
	  X    0.2   #exchanger amount in mol
	  equilibrate with solution 1
	  exchange_gammas   true
	EQUILIBRIUM_PHASES 1
	  redoxFe(OH)3(a) 0.0 0.02#mol
	SURFACE 1
	Hfo_wOH 2.4e-3  600  0.02#mol
	Hfo_sOH 6e-6
	donnan 1e-12
	  H_a   3.837E-02  3.417E+04      100  ##gram of SOM for exchange
	  H_b   3.837E-02
	 H_c   3.837E-02
	 H_d  3.837E-02
	  H_e   1.919E-02
	 H_f   1.919E-02
	 H_g  1.919E-02
	 H_h  1.919E-02
	  H_ab  6.378E-02
	 H_ad  6.378E-02
	 H_af  6.378E-02
	 H_ah  6.378E-02
	  H_bc  6.378E-02
	 H_be  6.378E-02
	 H_bg  6.378E-05
	 H_cd  6.378E-05
	  H_cf  6.378E-02
	 H_ch  6.378E-02
	 H_de  6.378E-05
	 H_dg  6.378E-05
	 equilibrate with solution 1
	REACTION 1
	CaSulfate  0.0001225  #mol
	NaCl       0.0006127
	NaHCO3     0.0003064
	MgCO3      0.0003064
	MgNitrate   0.0003064
	KNitrate    0.00001225
	 15 in 15 steps
	SELECTED_OUTPUT
	reset false
	file vanD_peat_fresh_exch_c.txt
	USER_PUNCH
	start
	heading pH  Na  K  Ca  Mg  PO4  Cl  SO4 NH4 HCO3 sc
	10 PUNCH -la("H+")
	20 PUNCH tot("Na")  tot("K")  tot("Ca")  tot("Mg") tot("P")  tot("Cl")  tot("Sulfate") tot ("Amm")  tot("C(4)")
	30 PUNCH CALC_VALUE ("SC_T25")
	end
	END
-------------------------------------------------------
Beginning of initial exchange-composition calculations.
-------------------------------------------------------

Exchange 1.	

X                2.000e-01 mol

	                               Equiv-    Equivalent      Log 
	Species             Moles      alents      Fraction     Gamma

	MgX2              5.194e-02   1.039e-01   5.194e-01     0.000
	CaX2              3.424e-02   6.849e-02   3.424e-01     0.000
	NaX               2.628e-02   2.628e-02   1.314e-01     0.000
	AmmH4X            1.320e-03   1.320e-03   6.600e-03     0.000
	KX                1.762e-05   1.762e-05   8.812e-05    -0.067
	HX                2.207e-06   2.207e-06   1.104e-05    -0.054

------------------------------------------------------
Beginning of initial surface-composition calculations.
------------------------------------------------------

Surface 1.	

Diffuse Double Layer Surface-Complexation Model

H             
	 -1.030e-11  Surface + diffuse layer charge, eq
	 -7.491e-01  Surface charge, eq
	 -2.115e-02  sigma, C/m²
	 -4.835e-02  psi, V
	  1.947e+00  -F*psi/RT
	  7.011e+00  exp(-F*psi/RT)
	  3.417e+04  specific area, m²/g
	  3.417e+06  m² for   1.000e+02 g

	Water in diffuse layer: 3.417e-03 kg, 100.0% of total DDL-water.

	Total moles in diffuse layer (excluding water), Donnan calculation.
	Donnan Layer potential, psi_DL = -1.293e-01 V.
	Boltzmann factor, exp(-psi_DL * F / RT) = 1.825e+02 (= c_DL / c_free if z is +1).

	Element       	     Moles
	Alanine       	  9.3056e-11
	Amm           	  2.1371e-04
	C             	  5.9856e-08
	Ca            	  1.6939e-01
	Cl            	  2.3428e-07
	Cysteine      	  3.8590e-10
	Ferric        	  2.1814e-07
	Glutamine     	  5.9400e-11
	Glycine       	  1.6841e-08
	H             	  8.5702e-04
	K             	  8.1100e-07
	Mg            	  2.0132e-01
	Na            	  7.4564e-03
	O             	  4.7605e-06
	P             	  8.3959e-07
	Sulfate       	  1.9816e-07
	Threonine     	  5.9227e-11
	Tyrosine      	  5.9068e-11

H_a           
	  3.837e-02  moles
	                                   Mole                     Log
	Species               Moles    Fraction    Molality    Molality

	H_a-              3.829e-02       0.998   2.029e-02      -1.693
	H_aCa+            3.885e-05       0.001   2.059e-05      -4.686
	H_aMg+            3.718e-05       0.001   1.971e-05      -4.705
	H_aH              7.993e-07       0.000   4.236e-07      -6.373

H_ab          
	  6.378e-02  moles
	                                   Mole                     Log
	Species               Moles    Fraction    Molality    Molality

	H_ab-2            6.373e-02       0.999   3.377e-02      -1.471
	H_abCa            2.045e-05       0.000   1.084e-05      -4.965
	H_abH-            1.714e-05       0.000   9.081e-06      -5.042
	H_abMg            1.554e-05       0.000   8.237e-06      -5.084
	H_abH2            3.577e-10       0.000   1.895e-10      -9.722

H_ad          
	  6.378e-02  moles
	                                   Mole                     Log
	Species               Moles    Fraction    Molality    Molality

	H_ad-2            5.587e-02       0.876   2.961e-02      -1.529
	H_adCa            3.044e-03       0.048   1.613e-03      -2.792
	H_adH-            2.551e-03       0.040   1.352e-03      -2.869
	H_adMg            2.314e-03       0.036   1.226e-03      -2.911
	H_adH2            5.325e-08       0.000   2.822e-08      -7.549

H_af          
	  6.378e-02  moles
	                                   Mole                     Log
	Species               Moles    Fraction    Molality    Molality

	H_afH-            5.746e-02       0.901   3.045e-02      -1.516
	H_afCa            6.110e-03       0.096   3.238e-03      -2.490
	H_af-2            2.041e-04       0.003   1.081e-04      -3.966
	H_afMg            7.889e-06       0.000   4.181e-06      -5.379
	H_afH2            1.199e-06       0.000   6.355e-07      -6.197

H_ah          
	  6.378e-02  moles
	                                   Mole                     Log
	Species               Moles    Fraction    Molality    Molality

	H_ahH-            6.376e-02       1.000   3.379e-02      -1.471
	H_ahCa            1.206e-05       0.000   6.390e-06      -5.195
	H_ahMg            8.754e-06       0.000   4.639e-06      -5.334
	H_ahH2            1.331e-06       0.000   7.052e-07      -6.152
	H_ah-2            4.731e-08       0.000   2.507e-08      -7.601

H_b           
	  3.837e-02  moles
	                                   Mole                     Log
	Species               Moles    Fraction    Molality    Molality

	H_b-              3.740e-02       0.975   1.982e-02      -1.703
	H_bCa+            4.889e-04       0.013   2.591e-04      -3.587
	H_bMg+            4.679e-04       0.012   2.480e-04      -3.606
	H_bH              1.006e-05       0.000   5.330e-06      -5.273

H_bc          
	  6.378e-02  moles
	                                   Mole                     Log
	Species               Moles    Fraction    Molality    Molality

	H_bc-2            5.801e-02       0.910   3.074e-02      -1.512
	H_bcCa            3.161e-03       0.050   1.675e-03      -2.776
	H_bcMg            2.403e-03       0.038   1.273e-03      -2.895
	H_bcH-            2.056e-04       0.003   1.090e-04      -3.963
	H_bcH2            5.529e-08       0.000   2.930e-08      -7.533

H_be          
	  6.378e-02  moles
	                                   Mole                     Log
	Species               Moles    Fraction    Molality    Molality

	H_beH-            5.102e-02       0.800   2.704e-02      -1.568
	H_be-2            1.254e-02       0.197   6.643e-03      -2.178
	H_beCa            1.243e-04       0.002   6.587e-05      -4.181
	H_beMg            9.024e-05       0.001   4.782e-05      -4.320
	H_beH2            1.372e-05       0.000   7.270e-06      -5.138

H_bg          
	  6.378e-05  moles
	                                   Mole                     Log
	Species               Moles    Fraction    Molality    Molality

	H_bgH-            6.349e-05       0.995   3.365e-05      -4.473
	H_bgCa            1.547e-07       0.002   8.198e-08      -7.086
	H_bgMg            1.123e-07       0.002   5.951e-08      -7.225
	H_bgH2            1.707e-08       0.000   9.047e-09      -8.043
	H_bg-2            3.260e-09       0.000   1.727e-09      -8.763

H_c           
	  3.837e-02  moles
	                                   Mole                     Log
	Species               Moles    Fraction    Molality    Molality

	H_c-              2.862e-02       0.746   1.517e-02      -1.819
	H_cCa+            4.931e-03       0.129   2.613e-03      -2.583
	H_cMg+            4.719e-03       0.123   2.501e-03      -2.602
	H_cH              1.014e-04       0.003   5.376e-05      -4.270

H_cd          
	  6.378e-05  moles
	                                   Mole                     Log
	Species               Moles    Fraction    Molality    Molality

	H_cdCa            3.405e-05       0.534   1.804e-05      -4.744
	H_cdMg            2.588e-05       0.406   1.372e-05      -4.863
	H_cd-2            3.680e-06       0.058   1.950e-06      -5.710
	H_cdH-            1.680e-07       0.003   8.904e-08      -7.050
	H_cdH2            5.956e-10       0.000   3.156e-10      -9.501

H_cf          
	  6.378e-02  moles
	                                   Mole                     Log
	Species               Moles    Fraction    Molality    Molality

	H_cfH-            6.003e-02       0.941   3.181e-02      -1.497
	H_cfCa            1.928e-03       0.030   1.022e-03      -2.991
	H_cfMg            1.400e-03       0.022   7.417e-04      -3.130
	H_cf-2            2.132e-04       0.003   1.130e-04      -3.947
	H_cfH2            2.128e-04       0.003   1.128e-04      -3.948

H_ch          
	  6.378e-02  moles
	                                   Mole                     Log
	Species               Moles    Fraction    Molality    Molality

	H_chH-            6.023e-02       0.944   3.192e-02      -1.496
	H_chCa            1.934e-03       0.030   1.025e-03      -2.989
	H_chMg            1.404e-03       0.022   7.442e-04      -3.128
	H_chH2            2.135e-04       0.003   1.131e-04      -3.946
	H_ch-2            4.469e-08       0.000   2.368e-08      -7.626

H_d           
	  3.837e-02  moles
	                                   Mole                     Log
	Species               Moles    Fraction    Molality    Molality

	H_dCa+            1.580e-02       0.412   8.374e-03      -2.077
	H_dMg+            1.512e-02       0.394   8.015e-03      -2.096
	H_d-              7.119e-03       0.186   3.773e-03      -2.423
	H_dH              3.251e-04       0.008   1.723e-04      -3.764

H_de          
	  6.378e-05  moles
	                                   Mole                     Log
	Species               Moles    Fraction    Molality    Molality

	H_deH-            3.180e-05       0.499   1.685e-05      -4.773
	H_deCa            1.316e-05       0.206   6.973e-06      -5.157
	H_deMg            9.553e-06       0.150   5.062e-06      -5.296
	H_de-2            7.814e-06       0.123   4.141e-06      -5.383
	H_deH2            1.452e-06       0.023   7.696e-07      -6.114

H_dg          
	  6.378e-05  moles
	                                   Mole                     Log
	Species               Moles    Fraction    Molality    Molality

	H_dgH-            3.624e-05       0.568   1.921e-05      -4.717
	H_dgCa            1.499e-05       0.235   7.946e-06      -5.100
	H_dgMg            1.089e-05       0.171   5.769e-06      -5.239
	H_dgH2            1.655e-06       0.026   8.770e-07      -6.057
	H_dg-2            1.861e-09       0.000   9.860e-10      -9.006

H_e           
	  1.919e-02  moles
	                                   Mole                     Log
	Species               Moles    Fraction    Molality    Molality

	H_eH              1.522e-02       0.793   8.067e-03      -2.093
	H_e-              3.740e-03       0.195   1.982e-03      -2.703
	H_eCa+            1.200e-04       0.006   6.360e-05      -4.197
	H_eMg+            1.072e-04       0.006   5.680e-05      -4.246

H_f           
	  1.919e-02  moles
	                                   Mole                     Log
	Species               Moles    Fraction    Molality    Molality

	H_fH              1.884e-02       0.982   9.985e-03      -2.001
	H_fCa+            1.485e-04       0.008   7.872e-05      -4.104
	H_fMg+            1.327e-04       0.007   7.031e-05      -4.153
	H_f-              6.692e-05       0.003   3.546e-05      -4.450

H_g           
	  1.919e-02  moles
	                                   Mole                     Log
	Species               Moles    Fraction    Molality    Molality

	H_gH              1.891e-02       0.985   1.002e-02      -1.999
	H_gCa+            1.491e-04       0.008   7.899e-05      -4.102
	H_gMg+            1.331e-04       0.007   7.055e-05      -4.151
	H_g-              9.706e-07       0.000   5.144e-07      -6.289

H_h           
	  1.919e-02  moles
	                                   Mole                     Log
	Species               Moles    Fraction    Molality    Molality

	H_hH              1.891e-02       0.985   1.002e-02      -1.999
	H_hCa+            1.491e-04       0.008   7.900e-05      -4.102
	H_hMg+            1.331e-04       0.007   7.056e-05      -4.151
	H_h-              1.403e-08       0.000   7.435e-09      -8.129

Hfo           
	  2.435e-18  Surface + diffuse layer charge, eq
	 -1.271e-06  Surface charge, eq
	 -1.022e-02  sigma, C/m²
	 -2.603e-02  psi, V
	  1.048e+00  -F*psi/RT
	  2.853e+00  exp(-F*psi/RT)
	  6.000e+02  specific area, m²/g
	  1.200e+01  m² for   2.000e-02 g

	Water in diffuse layer: 1.200e-08 kg,  0.0% of total DDL-water.

	Total moles in diffuse layer (excluding water), Donnan calculation.
	Donnan Layer potential, psi_DL = -1.202e-01 V.
	Boltzmann factor, exp(-psi_DL * F / RT) = 1.266e+02 (= c_DL / c_free if z is +1).

	Element       	     Moles
	Alanine       	  5.2339e-16
	Amm           	  5.2055e-10
	C             	  1.4896e-13
	Ca            	  2.8617e-07
	Cl            	  1.1863e-12
	Cysteine      	  1.5517e-15
	Ferric        	  5.1778e-13
	Glutamine     	  4.0514e-16
	Glycine       	  6.5917e-14
	H             	  2.0876e-09
	K             	  1.9754e-12
	Mg            	  3.4012e-07
	Na            	  1.8162e-08
	O             	  1.2720e-11
	P             	  2.1136e-12
	Sulfate       	  6.9632e-13
	Threonine     	  4.0453e-16
	Tyrosine      	  4.0399e-16

Hfo_s         
	  6.000e-06  moles
	                                   Mole                     Log
	Species               Moles    Fraction    Molality    Molality

	Hfo_sOHCa+2       5.951e-06       0.992   3.154e-06      -5.501
	Hfo_sOH2+         3.966e-08       0.007   2.102e-08      -7.677
	Hfo_sOH           9.316e-09       0.002   4.937e-09      -8.307
	Hfo_sO-           5.014e-11       0.000   2.657e-11     -10.576

Hfo_w         
	  2.400e-03  moles
	                                   Mole                     Log
	Species               Moles    Fraction    Molality    Molality

	Hfo_wHPO4-        8.954e-04       0.373   4.745e-04      -3.324
	Hfo_wOH2+         8.585e-04       0.358   4.550e-04      -3.342
	Hfo_wOH           2.017e-04       0.084   1.069e-04      -3.971
	Hfo_wOMg+         1.914e-04       0.080   1.014e-04      -3.994
	Hfo_wH2PO4        1.553e-04       0.065   8.229e-05      -4.085
	Hfo_wPO4-2        8.769e-05       0.037   4.647e-05      -4.333
	Hfo_wOCa+         8.931e-06       0.004   4.733e-06      -5.325
	Hfo_wO-           1.085e-06       0.000   5.752e-07      -6.240
	Hfo_wSulfateO4-   5.684e-08       0.000   3.012e-08      -7.521
	Hfo_wOHSulfateO4-2   2.663e-08       0.000   1.411e-08      -7.850

-----------------------------------------
Beginning of batch-reaction calculations.
-----------------------------------------

Reaction step 1.

Using solution 1.	
Using exchange 1.	Exchange assemblage after simulation 3.
Using surface 1.	
Using pure phase assemblage 1.	
Using gas phase 1.	
Using reaction 1.	

Reaction 1.	

	  1.000e+00 moles of the following reaction have been added:

	                 Relative
	Reactant            moles

	CaSulfate            0.00012
	KNitrate             0.00001
	MgCO3                0.00031
	MgNitrate            0.00031
	NaCl                 0.00061
	NaHCO3               0.00031

	                 Relative
	Element             moles
	C                    0.00061
	Ca                   0.00012
	Cl                   0.00061
	H                    0.00031
	K                    0.00001
	Mg                   0.00061
	Na                   0.00092
	Nitrate              0.00032
	O                    0.00184
	Sulfate              0.00012

----------------Fixed-pressure gas phase 1 dissolved completely----------------

-------------------------------Phase assemblage--------------------------------

                                                      Moles in assemblage
Phase               SI  log IAP  log K(T, P)   Initial       Final       Delta

redoxFe(OH)3(a)    0.00     4.89      4.89    2.000e-02   2.000e-02   1.347e-06

------------------------------Surface composition------------------------------

Diffuse Double Layer Surface-Complexation Model

H             
	 -1.620e-09  Surface + diffuse layer charge, eq
	 -7.497e-01  Surface charge, eq
	 -2.117e-02  sigma, C/m²
	 -4.756e-02  psi, V
	  1.916e+00  -F*psi/RT
	  6.791e+00  exp(-F*psi/RT)
	  3.417e+04  specific area, m²/g
	  3.417e+06  m² for   1.000e+02 g

	Water in diffuse layer: 3.417e-03 kg, 100.0% of total DDL-water.

	Total moles in diffuse layer (excluding water), Donnan calculation.
	Donnan Layer potential, psi_DL = -1.285e-01 V.
	Boltzmann factor, exp(-psi_DL * F / RT) = 1.768e+02 (= c_DL / c_free if z is +1).

	Element       	     Moles
	Alanine       	  9.6429e-11
	Amm           	  2.1156e-04
	C             	  3.7304e-06
	Ca            	  1.6936e-01
	Cl            	  2.4813e-07
	Cysteine      	  3.8902e-10
	Ferric        	  3.6417e-09
	Glutamine     	  6.2800e-11
	Glycine       	  1.6989e-08
	H             	  8.5730e-04
	K             	  1.2773e-06
	Mg            	  2.0167e-01
	Na            	  7.4757e-03
	Nitrate       	  3.2632e-09
	O             	  1.5438e-05
	P             	  8.5347e-07
	Sulfate       	  2.4062e-07
	Threonine     	  6.2627e-11
	Tyrosine      	  6.2469e-11

H_a           
	  3.837e-02  moles
	                                   Mole                     Log
	Species               Moles    Fraction    Molality    Molality

	H_a-              3.829e-02       0.998   2.029e-02      -1.693
	H_aCa+            3.846e-05       0.001   2.038e-05      -4.691
	H_aMg+            3.689e-05       0.001   1.955e-05      -4.709
	H_aH              7.781e-07       0.000   4.123e-07      -6.385

H_ab          
	  6.378e-02  moles
	                                   Mole                     Log
	Species               Moles    Fraction    Molality    Molality

	H_ab-2            6.373e-02       0.999   3.377e-02      -1.471
	H_abCa            2.024e-05       0.000   1.073e-05      -4.970
	H_abH-            1.668e-05       0.000   8.840e-06      -5.054
	H_abMg            1.542e-05       0.000   8.173e-06      -5.088
	H_abH2            3.389e-10       0.000   1.796e-10      -9.746

H_ad          
	  6.378e-02  moles
	                                   Mole                     Log
	Species               Moles    Fraction    Molality    Molality

	H_ad-2            5.597e-02       0.878   2.966e-02      -1.528
	H_adCa            3.019e-03       0.047   1.600e-03      -2.796
	H_adH-            2.488e-03       0.039   1.319e-03      -2.880
	H_adMg            2.300e-03       0.036   1.219e-03      -2.914
	H_adH2            5.056e-08       0.000   2.679e-08      -7.572

H_af          
	  6.378e-02  moles
	                                   Mole                     Log
	Species               Moles    Fraction    Molality    Molality

	H_afH-            5.736e-02       0.899   3.040e-02      -1.517
	H_afCa            6.202e-03       0.097   3.287e-03      -2.483
	H_af-2            2.093e-04       0.003   1.109e-04      -3.955
	H_afMg            8.027e-06       0.000   4.254e-06      -5.371
	H_afH2            1.165e-06       0.000   6.176e-07      -6.209

H_ah          
	  6.378e-02  moles
	                                   Mole                     Log
	Species               Moles    Fraction    Molality    Molality

	H_ahH-            6.376e-02       1.000   3.379e-02      -1.471
	H_ahCa            1.226e-05       0.000   6.497e-06      -5.187
	H_ahMg            8.922e-06       0.000   4.728e-06      -5.325
	H_ahH2            1.295e-06       0.000   6.865e-07      -6.163
	H_ah-2            4.860e-08       0.000   2.576e-08      -7.589

H_b           
	  3.837e-02  moles
	                                   Mole                     Log
	Species               Moles    Fraction    Molality    Molality

	H_b-              3.741e-02       0.975   1.983e-02      -1.703
	H_bCa+            4.840e-04       0.013   2.565e-04      -3.591
	H_bMg+            4.643e-04       0.012   2.461e-04      -3.609
	H_bH              9.793e-06       0.000   5.190e-06      -5.285

H_bc          
	  6.378e-02  moles
	                                   Mole                     Log
	Species               Moles    Fraction    Molality    Molality

	H_bc-2            5.806e-02       0.910   3.077e-02      -1.512
	H_bcCa            3.131e-03       0.049   1.660e-03      -2.780
	H_bcMg            2.386e-03       0.037   1.265e-03      -2.898
	H_bcH-            2.003e-04       0.003   1.062e-04      -3.974
	H_bcH2            5.244e-08       0.000   2.779e-08      -7.556

H_be          
	  6.378e-02  moles
	                                   Mole                     Log
	Species               Moles    Fraction    Molality    Molality

	H_beH-            5.074e-02       0.796   2.689e-02      -1.570
	H_be-2            1.281e-02       0.201   6.787e-03      -2.168
	H_beCa            1.257e-04       0.002   6.661e-05      -4.176
	H_beMg            9.147e-05       0.001   4.848e-05      -4.314
	H_beH2            1.328e-05       0.000   7.039e-06      -5.153

H_bg          
	  6.378e-05  moles
	                                   Mole                     Log
	Species               Moles    Fraction    Molality    Molality

	H_bgH-            6.349e-05       0.995   3.365e-05      -4.473
	H_bgCa            1.573e-07       0.002   8.335e-08      -7.079
	H_bgMg            1.145e-07       0.002   6.065e-08      -7.217
	H_bgH2            1.662e-08       0.000   8.807e-09      -8.055
	H_bg-2            3.348e-09       0.000   1.774e-09      -8.751

H_c           
	  3.837e-02  moles
	                                   Mole                     Log
	Species               Moles    Fraction    Molality    Molality

	H_c-              2.869e-02       0.748   1.520e-02      -1.818
	H_cCa+            4.892e-03       0.128   2.593e-03      -2.586
	H_cMg+            4.693e-03       0.122   2.487e-03      -2.604
	H_cH              9.898e-05       0.003   5.246e-05      -4.280

H_cd          
	  6.378e-05  moles
	                                   Mole                     Log
	Species               Moles    Fraction    Molality    Molality

	H_cdCa            3.400e-05       0.533   1.802e-05      -4.744
	H_cdMg            2.591e-05       0.406   1.373e-05      -4.862
	H_cd-2            3.712e-06       0.058   1.967e-06      -5.706
	H_cdH-            1.650e-07       0.003   8.744e-08      -7.058
	H_cdH2            5.693e-10       0.000   3.017e-10      -9.520

H_cf          
	  6.378e-02  moles
	                                   Mole                     Log
	Species               Moles    Fraction    Molality    Molality

	H_cfH-            5.997e-02       0.940   3.178e-02      -1.498
	H_cfCa            1.958e-03       0.031   1.038e-03      -2.984
	H_cfMg            1.425e-03       0.022   7.553e-04      -3.122
	H_cf-2            2.188e-04       0.003   1.160e-04      -3.936
	H_cfH2            2.069e-04       0.003   1.097e-04      -3.960

H_ch          
	  6.378e-02  moles
	                                   Mole                     Log
	Species               Moles    Fraction    Molality    Molality

	H_chH-            6.018e-02       0.944   3.189e-02      -1.496
	H_chCa            1.965e-03       0.031   1.041e-03      -2.982
	H_chMg            1.430e-03       0.022   7.579e-04      -3.120
	H_chH2            2.076e-04       0.003   1.100e-04      -3.958
	H_ch-2            4.587e-08       0.000   2.431e-08      -7.614

H_d           
	  3.837e-02  moles
	                                   Mole                     Log
	Species               Moles    Fraction    Molality    Molality

	H_dCa+            1.576e-02       0.411   8.352e-03      -2.078
	H_dMg+            1.512e-02       0.394   8.012e-03      -2.096
	H_d-              7.173e-03       0.187   3.801e-03      -2.420
	H_dH              3.188e-04       0.008   1.690e-04      -3.772

H_de          
	  6.378e-05  moles
	                                   Mole                     Log
	Species               Moles    Fraction    Molality    Molality

	H_deH-            3.152e-05       0.494   1.670e-05      -4.777
	H_deCa            1.326e-05       0.208   7.026e-06      -5.153
	H_deMg            9.649e-06       0.151   5.113e-06      -5.291
	H_de-2            7.955e-06       0.125   4.216e-06      -5.375
	H_deH2            1.401e-06       0.022   7.425e-07      -6.129

H_dg          
	  6.378e-05  moles
	                                   Mole                     Log
	Species               Moles    Fraction    Molality    Molality

	H_dgH-            3.601e-05       0.565   1.908e-05      -4.719
	H_dgCa            1.515e-05       0.237   8.027e-06      -5.095
	H_dgMg            1.102e-05       0.173   5.842e-06      -5.233
	H_dgH2            1.601e-06       0.025   8.482e-07      -6.071
	H_dg-2            1.899e-09       0.000   1.006e-09      -8.997

H_e           
	  1.919e-02  moles
	                                   Mole                     Log
	Species               Moles    Fraction    Molality    Molality

	H_eH              1.514e-02       0.789   8.023e-03      -2.096
	H_e-              3.821e-03       0.199   2.025e-03      -2.694
	H_eCa+            1.214e-04       0.006   6.431e-05      -4.192
	H_eMg+            1.086e-04       0.006   5.758e-05      -4.240

H_f           
	  1.919e-02  moles
	                                   Mole                     Log
	Species               Moles    Fraction    Molality    Molality

	H_fH              1.884e-02       0.982   9.982e-03      -2.001
	H_fCa+            1.510e-04       0.008   8.001e-05      -4.097
	H_fMg+            1.352e-04       0.007   7.164e-05      -4.145
	H_f-              6.872e-05       0.004   3.642e-05      -4.439

H_g           
	  1.919e-02  moles
	                                   Mole                     Log
	Species               Moles    Fraction    Molality    Molality

	H_gH              1.890e-02       0.985   1.002e-02      -1.999
	H_gCa+            1.515e-04       0.008   8.030e-05      -4.095
	H_gMg+            1.357e-04       0.007   7.189e-05      -4.143
	H_g-              9.968e-07       0.000   5.283e-07      -6.277

H_h           
	  1.919e-02  moles
	                                   Mole                     Log
	Species               Moles    Fraction    Molality    Molality

	H_hH              1.890e-02       0.985   1.002e-02      -1.999
	H_hCa+            1.515e-04       0.008   8.030e-05      -4.095
	H_hMg+            1.357e-04       0.007   7.189e-05      -4.143
	H_h-              1.441e-08       0.000   7.636e-09      -8.117

Hfo           
	 -2.754e-15  Surface + diffuse layer charge, eq
	 -1.284e-06  Surface charge, eq
	 -1.032e-02  sigma, C/m²
	 -2.573e-02  psi, V
	  1.036e+00  -F*psi/RT
	  2.819e+00  exp(-F*psi/RT)
	  6.000e+02  specific area, m²/g
	  1.200e+01  m² for   2.000e-02 g

	Water in diffuse layer: 1.200e-08 kg,  0.0% of total DDL-water.

	Total moles in diffuse layer (excluding water), Donnan calculation.
	Donnan Layer potential, psi_DL = -1.195e-01 V.
	Boltzmann factor, exp(-psi_DL * F / RT) = 1.232e+02 (= c_DL / c_free if z is +1).

	Element       	     Moles
	Alanine       	  5.4454e-16
	Amm           	  5.1761e-10
	C             	  9.3193e-12
	Ca            	  2.8869e-07
	Cl            	  1.2507e-12
	Cysteine      	  1.5719e-15
	Ferric        	  8.6903e-15
	Glutamine     	  4.2639e-16
	Glycine       	  6.6938e-14
	H             	  2.1038e-09
	K             	  3.1252e-12
	Mg            	  3.4376e-07
	Na            	  1.8291e-08
	Nitrate       	  1.6449e-14
	O             	  3.9510e-11
	P             	  2.1587e-12
	Sulfate       	  8.4553e-13
	Threonine     	  4.2578e-16
	Tyrosine      	  4.2524e-16

Hfo_s         
	  6.000e-06  moles
	                                   Mole                     Log
	Species               Moles    Fraction    Molality    Molality

	Hfo_sOHCa+2       5.953e-06       0.992   3.155e-06      -5.501
	Hfo_sOH2+         3.824e-08       0.006   2.027e-08      -7.693
	Hfo_sOH           9.047e-09       0.002   4.794e-09      -8.319
	Hfo_sO-           4.902e-11       0.000   2.598e-11     -10.585

Hfo_w         
	  2.400e-03  moles
	                                   Mole                     Log
	Species               Moles    Fraction    Molality    Molality

	Hfo_wHPO4-        8.952e-04       0.373   4.744e-04      -3.324
	Hfo_wOH2+         8.517e-04       0.355   4.514e-04      -3.345
	Hfo_wOH           2.015e-04       0.084   1.068e-04      -3.972
	Hfo_wOMg+         1.988e-04       0.083   1.053e-04      -3.977
	Hfo_wH2PO4        1.542e-04       0.064   8.170e-05      -4.088
	Hfo_wPO4-2        8.827e-05       0.037   4.678e-05      -4.330
	Hfo_wOCa+         9.254e-06       0.004   4.904e-06      -5.309
	Hfo_wO-           1.092e-06       0.000   5.786e-07      -6.238
	Hfo_wSulfateO4-   6.640e-08       0.000   3.519e-08      -7.454
	Hfo_wOHSulfateO4-2   3.132e-08       0.000   1.660e-08      -7.780

-----------------------------Exchange composition------------------------------

X                2.000e-01 mol

	                               Equiv-    Equivalent      Log 
	Species             Moles      alents      Fraction     Gamma

	MgX2              5.196e-02   1.039e-01   5.196e-01    -0.000
	CaX2              3.418e-02   6.835e-02   3.418e-01    -0.000
	NaX               2.639e-02   2.639e-02   1.319e-01    -0.000
	AmmH4X            1.308e-03   1.308e-03   6.539e-03    -0.000
	KX                2.787e-05   2.787e-05   1.394e-04    -0.068
	HX                2.162e-06   2.162e-06   1.081e-05    -0.055

-----------------------------Solution composition------------------------------

	Elements           Molality       Moles

	Alanine           5.056e-04   9.541e-04
	Amm               3.521e-04   6.643e-04
	C                 3.282e-04   6.193e-04
	Ca                1.628e-03   3.072e-03
	Cl                1.284e-02   2.423e-02
	Cysteine          5.056e-04   9.541e-04
	Ferric            1.050e-08   1.982e-08
	Glutamine         5.056e-04   9.541e-04
	Glycine           5.056e-04   9.541e-04
	K                 2.117e-06   3.994e-06
	Mg                1.942e-03   3.665e-03
	Na                1.239e-02   2.337e-02
	Nitrate           1.689e-04   3.186e-04
	P                 8.238e-05   1.554e-04
	Sulfate           4.454e-04   8.404e-04
	Threonine         5.056e-04   9.541e-04
	Tyrosine          5.056e-04   9.541e-04

----------------------------Description of solution----------------------------

                                       pH  =   7.114      Charge balance
                                       pe  =  -7.132      Adjusted to redox equilibrium
      Specific Conductance (µS/cm,  15°C)  = 1447
                        Activity of water  =   0.999
                 Ionic strength (mol/kgw)  =   2.607e-02
                       Mass of water (kg)  =   1.887e+00
                 Total alkalinity (eq/kg)  =   3.370e-03
                       Total CO2 (mol/kg)  =   3.282e-04
                         Temperature (°C)  =  15.00
                  Electrical balance (eq)  =  -1.030e-11
 Percent error, 100*(Cat-|An|)/(Cat+|An|)  =  -0.00
                               Iterations  =   1
                                  Total H  = 2.094843e+02
                                  Total O  = 1.047456e+02

----------------------------Distribution of species----------------------------

                                               Log       Log       Log    mole V
   Species          Molality    Activity  Molality  Activity     Gamma   cm³/mol

   H+              8.727e-08   7.691e-08    -7.059    -7.114    -0.055      0.00
   OH-             6.857e-08   5.858e-08    -7.164    -7.232    -0.068     (0)  
   H2O             5.551e+01   9.994e-01     1.744    -0.000     0.000     18.03
Alanine       5.056e-04
   Alanine-2       5.056e-04   2.758e-04    -3.296    -3.559    -0.263     (0)  
   H2(Alanine)     1.202e-08   1.209e-08    -7.920    -7.918     0.003     (0)  
   H(Alanine)-     5.525e-09   4.748e-09    -8.258    -8.324    -0.066     (0)  
Amm           3.521e-04
   AmmH4+          3.501e-04   2.969e-04    -3.456    -3.527    -0.072     (0)  
   AmmH3           1.052e-06   1.058e-06    -5.978    -5.975     0.003     (0)  
   AmmH4SulfateO4-   8.919e-07   7.665e-07    -6.050    -6.115    -0.066     (0)  
C(4)          3.282e-04
   HCO3-           2.730e-04   2.362e-04    -3.564    -3.627    -0.063     (0)  
   CO2             4.738e-05   4.767e-05    -4.324    -4.322     0.003     (0)  
   MgHCO3+         3.331e-06   2.862e-06    -5.477    -5.543    -0.066     (0)  
   CaHCO3+         2.557e-06   2.212e-06    -5.592    -5.655    -0.063     (0)  
   NaHCO3          1.406e-06   1.415e-06    -5.852    -5.849     0.003     (0)  
   CO3-2           2.046e-07   1.145e-07    -6.689    -6.941    -0.252     (0)  
   CaCO3           1.444e-07   1.453e-07    -6.840    -6.838     0.003     (0)  
   MgCO3           9.980e-08   1.004e-07    -7.001    -6.998     0.003     (0)  
   NaCO3-          1.569e-08   1.348e-08    -7.804    -7.870    -0.066     (0)  
Ca            1.628e-03
   Ca+2            1.585e-03   8.871e-04    -2.800    -3.052    -0.252     (0)  
   CaSulfateO4     3.201e-05   3.220e-05    -4.495    -4.492     0.003     (0)  
   CaHPO4          7.208e-06   7.252e-06    -5.142    -5.140     0.003     (0)  
   CaHCO3+         2.557e-06   2.212e-06    -5.592    -5.655    -0.063     (0)  
   CaH2PO4+        5.139e-07   4.416e-07    -6.289    -6.355    -0.066     (0)  
   CaPO4-          2.136e-07   1.836e-07    -6.670    -6.736    -0.066     (0)  
   CaCO3           1.444e-07   1.453e-07    -6.840    -6.838     0.003     (0)  
   CaOH+           2.226e-09   1.913e-09    -8.652    -8.718    -0.066     (0)  
   CaHSulfateO4+   1.509e-11   1.297e-11   -10.821   -10.887    -0.066     (0)  
Cl            1.284e-02
   Cl-             1.284e-02   1.098e-02    -1.891    -1.959    -0.068     (0)  
   FerricCl+2      1.553e-17   8.468e-18   -16.809   -17.072    -0.263     (0)  
   FerricCl2+      6.709e-19   5.765e-19   -18.173   -18.239    -0.066     (0)  
   FerricCl3       6.292e-22   6.330e-22   -21.201   -21.199     0.003     (0)  
Cysteine      5.056e-04
   Cysteine-2      5.055e-04   2.757e-04    -3.296    -3.560    -0.263     (0)  
   H2(Cysteine)    9.767e-08   9.826e-08    -7.010    -7.008     0.003     (0)  
   H(Cysteine)-    1.265e-09   1.087e-09    -8.898    -8.964    -0.066     (0)  
Ferric        1.050e-08
   Ferric(OH)2+    5.471e-09   4.701e-09    -8.262    -8.328    -0.066     (0)  
   Ferric(OH)3     4.984e-09   5.014e-09    -8.302    -8.300     0.003     (0)  
   Ferric(OH)4-    4.562e-11   3.920e-11   -10.341   -10.407    -0.066     (0)  
   FerricOH+2      2.966e-12   1.618e-12   -11.528   -11.791    -0.263     (0)  
   FerricH2PO4+2   4.154e-16   2.266e-16   -15.382   -15.645    -0.263     (0)  
   FerricHPO4+     1.433e-16   1.232e-16   -15.844   -15.909    -0.066     (0)  
   Ferric+3        1.106e-16   3.545e-17   -15.956   -16.450    -0.494     (0)  
   FerricSulfateO4+   7.209e-17   6.195e-17   -16.142   -16.208    -0.066     (0)  
   FerricCl+2      1.553e-17   8.468e-18   -16.809   -17.072    -0.263     (0)  
   FerricCl2+      6.709e-19   5.765e-19   -18.173   -18.239    -0.066     (0)  
   Ferric(SulfateO4)2-   3.035e-19   2.608e-19   -18.518   -18.584    -0.066     (0)  
   Ferric2(OH)2+4   1.221e-21   1.080e-22   -20.913   -21.967    -1.053     (0)  
   FerricCl3       6.292e-22   6.330e-22   -21.201   -21.199     0.003     (0)  
   FerricHSulfateO4+2   2.387e-23   1.302e-23   -22.622   -22.885    -0.263     (0)  
   Ferric3(OH)4+5   1.219e-26   2.756e-28   -25.914   -27.560    -1.646     (0)  
Glutamine     5.056e-04
   Glutamine-2     5.056e-04   2.758e-04    -3.296    -3.559    -0.263     (0)  
   H(Glutamine)-   3.650e-09   3.137e-09    -8.438    -8.504    -0.066     (0)  
   H2(Glutamine)   2.187e-09   2.200e-09    -8.660    -8.658     0.003     (0)  
Glycine       5.056e-04
   Glycine-        5.056e-04   4.345e-04    -3.296    -3.362    -0.066     (0)  
   H2(Glycine)+    1.191e-08   1.023e-08    -7.924    -7.990    -0.066     (0)  
   H(Glycine)      7.267e-09   7.311e-09    -8.139    -8.136     0.003     (0)  
H(0)          1.692e-03
   H2              8.459e-04   8.510e-04    -3.073    -3.070     0.003     (0)  
K             2.117e-06
   K+              2.114e-06   1.808e-06    -5.675    -5.743    -0.068     (0)  
   KSulfateO4-     2.472e-09   2.125e-09    -8.607    -8.673    -0.066     (0)  
   KHPO4-          7.419e-11   6.375e-11   -10.130   -10.195    -0.066     (0)  
   KOH             8.097e-14   8.145e-14   -13.092   -13.089     0.003     (0)  
Mg            1.942e-03
   Mg+2            1.888e-03   1.071e-03    -2.724    -2.970    -0.246     (0)  
   MgSulfateO4     3.832e-05   3.856e-05    -4.417    -4.414     0.003     (0)  
   MgHPO4          1.177e-05   1.184e-05    -4.929    -4.927     0.003     (0)  
   MgHCO3+         3.331e-06   2.862e-06    -5.477    -5.543    -0.066     (0)  
   MgH2PO4+        7.904e-07   6.792e-07    -6.102    -6.168    -0.066     (0)  
   MgPO4-          3.480e-07   2.990e-07    -6.458    -6.524    -0.066     (0)  
   MgCO3           9.980e-08   1.004e-07    -7.001    -6.998     0.003     (0)  
   MgOH+           2.311e-08   1.986e-08    -7.636    -7.702    -0.066     (0)  
Na            1.239e-02
   Na+             1.237e-02   1.065e-02    -1.908    -1.972    -0.065     (0)  
   NaSulfateO4-    1.166e-05   1.002e-05    -4.933    -4.999    -0.066     (0)  
   NaHCO3          1.406e-06   1.415e-06    -5.852    -5.849     0.003     (0)  
   NaHPO4-         4.373e-07   3.758e-07    -6.359    -6.425    -0.066     (0)  
   NaCO3-          1.569e-08   1.348e-08    -7.804    -7.870    -0.066     (0)  
   NaOH            9.093e-10   9.148e-10    -9.041    -9.039     0.003     (0)  
Nitrate       1.689e-04
   NitrateO3-      1.689e-04   1.451e-04    -3.772    -3.838    -0.066     (0)  
O(0)          0.000e+00
   O2              0.000e+00   0.000e+00   -89.582   -89.580     0.003     (0)  
P             8.238e-05
   HPO4-2          3.349e-05   1.809e-05    -4.475    -4.743    -0.268     (0)  
   H2PO4-          2.761e-05   2.374e-05    -4.559    -4.624    -0.065     (0)  
   MgHPO4          1.177e-05   1.184e-05    -4.929    -4.927     0.003     (0)  
   CaHPO4          7.208e-06   7.252e-06    -5.142    -5.140     0.003     (0)  
   MgH2PO4+        7.904e-07   6.792e-07    -6.102    -6.168    -0.066     (0)  
   CaH2PO4+        5.139e-07   4.416e-07    -6.289    -6.355    -0.066     (0)  
   NaHPO4-         4.373e-07   3.758e-07    -6.359    -6.425    -0.066     (0)  
   MgPO4-          3.480e-07   2.990e-07    -6.458    -6.524    -0.066     (0)  
   CaPO4-          2.136e-07   1.836e-07    -6.670    -6.736    -0.066     (0)  
   PO4-3           3.448e-10   8.622e-11    -9.462   -10.064    -0.602     (0)  
   KHPO4-          7.419e-11   6.375e-11   -10.130   -10.195    -0.066     (0)  
   FerricH2PO4+2   4.154e-16   2.266e-16   -15.382   -15.645    -0.263     (0)  
   FerricHPO4+     1.433e-16   1.232e-16   -15.844   -15.909    -0.066     (0)  
Sulfate       4.454e-04
   SulfateO4-2     3.625e-04   2.004e-04    -3.441    -3.698    -0.257     (0)  
   MgSulfateO4     3.832e-05   3.856e-05    -4.417    -4.414     0.003     (0)  
   CaSulfateO4     3.201e-05   3.220e-05    -4.495    -4.492     0.003     (0)  
   NaSulfateO4-    1.166e-05   1.002e-05    -4.933    -4.999    -0.066     (0)  
   AmmH4SulfateO4-   8.919e-07   7.665e-07    -6.050    -6.115    -0.066     (0)  
   KSulfateO4-     2.472e-09   2.125e-09    -8.607    -8.673    -0.066     (0)  
   HSulfateO4-     1.415e-09   1.216e-09    -8.849    -8.915    -0.066     (0)  
   CaHSulfateO4+   1.509e-11   1.297e-11   -10.821   -10.887    -0.066     (0)  
   FerricSulfateO4+   7.209e-17   6.195e-17   -16.142   -16.208    -0.066     (0)  
   Ferric(SulfateO4)2-   3.035e-19   2.608e-19   -18.518   -18.584    -0.066     (0)  
   FerricHSulfateO4+2   2.387e-23   1.302e-23   -22.622   -22.885    -0.263     (0)  
Threonine     5.056e-04
   Threonine-2     5.056e-04   2.758e-04    -3.296    -3.559    -0.263     (0)  
   H(Threonine)-   3.486e-09   2.996e-09    -8.458    -8.524    -0.066     (0)  
   H2(Threonine)   2.137e-09   2.150e-09    -8.670    -8.668     0.003     (0)  
Tyrosine      5.056e-04
   Tyrosine-2      5.056e-04   2.758e-04    -3.296    -3.559    -0.263     (0)  
   H(Tyrosine)-    3.911e-09   3.361e-09    -8.408    -8.474    -0.066     (0)  
   H2(Tyrosine)    2.089e-09   2.101e-09    -8.680    -8.678     0.003     (0)  

------------------------------Saturation indices-------------------------------

  Phase               SI** log IAP   log K(288 K,   1 atm)

  FixpH            -7.11     -7.11    0.00  H+
  H2(g)             0.04     -3.07   -3.11  H2
  H2O(g)           -1.78     -0.00    1.78  H2O
  Halite           -5.49     -3.93    1.56  NaCl
  Hydroxyapatite    1.47     -1.03   -2.50  Ca5(PO4)3OH
  redoxAnhydrite   -2.41     -6.75   -4.34  CaSulfateO4
  redoxAragonite   -1.71     -9.99   -8.28  CaCO3
  redoxCalcite     -1.56     -9.99   -8.43  CaCO3
  redoxCO2(g)      -2.98     -4.32   -1.34  CO2
  redoxDolomite    -3.05    -19.90  -16.85  CaMg(CO3)2
  redoxFe(OH)3(a)   0.00      4.89    4.89  Ferric(OH)3
  redoxGoethite     5.52      4.89   -0.63  FerricOOH
  redoxGypsum      -2.17     -6.75   -4.58  CaSulfateO4:2H2O
  redoxHematite    13.01      9.78   -3.22  Ferric2O3
  redoxJarosite-K -11.39    -19.81   -8.41  KFerric3(SulfateO4)2(OH)6
  redoxNH3(g)      -7.95     -5.98    1.98  AmmH3

**For a gas, SI = log10(fugacity). Fugacity = pressure * phi / 1 atm.
  For ideal gases, phi = 1.

Reaction step 2.

Using solution 1.	
Using exchange 1.	Exchange assemblage after simulation 3.
Using surface 1.	
Using pure phase assemblage 1.	
Using gas phase 1.	
Using reaction 1.	

Reaction 1.	

	  2.000e+00 moles of the following reaction have been added:

	                 Relative
	Reactant            moles

	CaSulfate            0.00012
	KNitrate             0.00001
	MgCO3                0.00031
	MgNitrate            0.00031
	NaCl                 0.00061
	NaHCO3               0.00031

	                 Relative
	Element             moles
	C                    0.00061
	Ca                   0.00012
	Cl                   0.00061
	H                    0.00031
	K                    0.00001
	Mg                   0.00061
	Na                   0.00092
	Nitrate              0.00032
	O                    0.00184
	Sulfate              0.00012

----------------Fixed-pressure gas phase 1 dissolved completely----------------

-------------------------------Phase assemblage--------------------------------

                                                      Moles in assemblage
Phase               SI  log IAP  log K(T, P)   Initial       Final       Delta

redoxFe(OH)3(a)    0.00     4.89      4.89    2.000e-02   2.000e-02   1.347e-06

------------------------------Surface composition------------------------------

Diffuse Double Layer Surface-Complexation Model

H             
	 -4.424e-10  Surface + diffuse layer charge, eq
	 -7.504e-01  Surface charge, eq
	 -2.119e-02  sigma, C/m²
	 -4.681e-02  psi, V
	  1.885e+00  -F*psi/RT
	  6.589e+00  exp(-F*psi/RT)
	  3.417e+04  specific area, m²/g
	  3.417e+06  m² for   1.000e+02 g

	Water in diffuse layer: 3.417e-03 kg, 100.0% of total DDL-water.

	Total moles in diffuse layer (excluding water), Donnan calculation.
	Donnan Layer potential, psi_DL = -1.278e-01 V.
	Boltzmann factor, exp(-psi_DL * F / RT) = 1.716e+02 (= c_DL / c_free if z is +1).

	Element       	     Moles
	Alanine       	  9.9709e-11
	Amm           	  2.0951e-04
	C             	  7.5452e-06
	Ca            	  1.6933e-01
	Cl            	  2.6215e-07
	Cysteine      	  3.9132e-10
	Ferric        	  3.5506e-09
	Glutamine     	  6.6193e-11
	Glycine       	  1.7124e-08
	H             	  8.5856e-04
	K             	  1.7374e-06
	Mg            	  2.0201e-01
	Na            	  7.4973e-03
	Nitrate       	  6.7251e-09
	O             	  2.6964e-05
	P             	  8.6657e-07
	Sulfate       	  2.8520e-07
	Threonine     	  6.6020e-11
	Tyrosine      	  6.5863e-11

H_a           
	  3.837e-02  moles
	                                   Mole                     Log
	Species               Moles    Fraction    Molality    Molality

	H_a-              3.829e-02       0.998   2.029e-02      -1.693
	H_aCa+            3.807e-05       0.001   2.018e-05      -4.695
	H_aMg+            3.661e-05       0.001   1.940e-05      -4.712
	H_aH              7.577e-07       0.000   4.015e-07      -6.396

H_ab          
	  6.378e-02  moles
	                                   Mole                     Log
	Species               Moles    Fraction    Molality    Molality

	H_ab-2            6.373e-02       0.999   3.377e-02      -1.471
	H_abCa            2.004e-05       0.000   1.062e-05      -4.974
	H_abH-            1.624e-05       0.000   8.608e-06      -5.065
	H_abMg            1.530e-05       0.000   8.111e-06      -5.091
	H_abH2            3.214e-10       0.000   1.703e-10      -9.769

H_ad          
	  6.378e-02  moles
	                                   Mole                     Log
	Species               Moles    Fraction    Molality    Molality

	H_ad-2            5.607e-02       0.879   2.972e-02      -1.527
	H_adCa            2.994e-03       0.047   1.587e-03      -2.800
	H_adH-            2.427e-03       0.038   1.286e-03      -2.891
	H_adMg            2.287e-03       0.036   1.212e-03      -2.917
	H_adH2            4.802e-08       0.000   2.545e-08      -7.594

H_af          
	  6.378e-02  moles
	                                   Mole                     Log
	Species               Moles    Fraction    Molality    Molality

	H_afH-            5.726e-02       0.898   3.035e-02      -1.518
	H_afCa            6.295e-03       0.099   3.336e-03      -2.477
	H_af-2            2.145e-04       0.003   1.137e-04      -3.944
	H_afMg            8.166e-06       0.000   4.327e-06      -5.364
	H_afH2            1.133e-06       0.000   6.004e-07      -6.222

H_ah          
	  6.378e-02  moles
	                                   Mole                     Log
	Species               Moles    Fraction    Molality    Molality

	H_ahH-            6.376e-02       1.000   3.379e-02      -1.471
	H_ahCa            1.246e-05       0.000   6.605e-06      -5.180
	H_ahMg            9.092e-06       0.000   4.818e-06      -5.317
	H_ahH2            1.261e-06       0.000   6.685e-07      -6.175
	H_ah-2            4.991e-08       0.000   2.645e-08      -7.578

H_b           
	  3.837e-02  moles
	                                   Mole                     Log
	Species               Moles    Fraction    Molality    Molality

	H_b-              3.742e-02       0.975   1.983e-02      -1.703
	H_bCa+            4.793e-04       0.012   2.540e-04      -3.595
	H_bMg+            4.609e-04       0.012   2.442e-04      -3.612
	H_bH              9.538e-06       0.000   5.055e-06      -5.296

H_bc          
	  6.378e-02  moles
	                                   Mole                     Log
	Species               Moles    Fraction    Molality    Molality

	H_bc-2            5.811e-02       0.911   3.080e-02      -1.511
	H_bcCa            3.103e-03       0.049   1.644e-03      -2.784
	H_bcMg            2.370e-03       0.037   1.256e-03      -2.901
	H_bcH-            1.953e-04       0.003   1.035e-04      -3.985
	H_bcH2            4.977e-08       0.000   2.638e-08      -7.579

H_be          
	  6.378e-02  moles
	                                   Mole                     Log
	Species               Moles    Fraction    Molality    Molality

	H_beH-            5.047e-02       0.791   2.674e-02      -1.573
	H_be-2            1.308e-02       0.205   6.932e-03      -2.159
	H_beCa            1.271e-04       0.002   6.735e-05      -4.172
	H_beMg            9.271e-05       0.001   4.913e-05      -4.309
	H_beH2            1.286e-05       0.000   6.817e-06      -5.166

H_bg          
	  6.378e-05  moles
	                                   Mole                     Log
	Species               Moles    Fraction    Molality    Molality

	H_bgH-            6.348e-05       0.995   3.364e-05      -4.473
	H_bgCa            1.599e-07       0.003   8.473e-08      -7.072
	H_bgMg            1.166e-07       0.002   6.181e-08      -7.209
	H_bgH2            1.618e-08       0.000   8.575e-09      -8.067
	H_bg-2            3.438e-09       0.000   1.822e-09      -8.739

H_c           
	  3.837e-02  moles
	                                   Mole                     Log
	Species               Moles    Fraction    Molality    Molality

	H_c-              2.875e-02       0.749   1.524e-02      -1.817
	H_cCa+            4.854e-03       0.127   2.573e-03      -2.590
	H_cMg+            4.668e-03       0.122   2.474e-03      -2.607
	H_cH              9.661e-05       0.003   5.120e-05      -4.291

H_cd          
	  6.378e-05  moles
	                                   Mole                     Log
	Species               Moles    Fraction    Molality    Molality

	H_cdCa            3.394e-05       0.532   1.799e-05      -4.745
	H_cdMg            2.593e-05       0.407   1.374e-05      -4.862
	H_cd-2            3.744e-06       0.059   1.984e-06      -5.702
	H_cdH-            1.621e-07       0.003   8.588e-08      -7.066
	H_cdH2            5.445e-10       0.000   2.886e-10      -9.540

H_cf          
	  6.378e-02  moles
	                                   Mole                     Log
	Species               Moles    Fraction    Molality    Molality

	H_cfH-            5.991e-02       0.939   3.175e-02      -1.498
	H_cfCa            1.989e-03       0.031   1.054e-03      -2.977
	H_cfMg            1.451e-03       0.023   7.689e-04      -3.114
	H_cf-2            2.245e-04       0.004   1.190e-04      -3.925
	H_cfH2            2.013e-04       0.003   1.067e-04      -3.972

H_ch          
	  6.378e-02  moles
	                                   Mole                     Log
	Species               Moles    Fraction    Molality    Molality

	H_chH-            6.013e-02       0.943   3.186e-02      -1.497
	H_chCa            1.996e-03       0.031   1.058e-03      -2.976
	H_chMg            1.456e-03       0.023   7.717e-04      -3.113
	H_chH2            2.020e-04       0.003   1.071e-04      -3.970
	H_ch-2            4.707e-08       0.000   2.494e-08      -7.603

H_d           
	  3.837e-02  moles
	                                   Mole                     Log
	Species               Moles    Fraction    Molality    Molality

	H_dCa+            1.572e-02       0.410   8.329e-03      -2.079
	H_dMg+            1.511e-02       0.394   8.010e-03      -2.096
	H_d-              7.226e-03       0.188   3.829e-03      -2.417
	H_dH              3.128e-04       0.008   1.658e-04      -3.781

H_de          
	  6.378e-05  moles
	                                   Mole                     Log
	Species               Moles    Fraction    Molality    Molality

	H_deH-            3.123e-05       0.490   1.655e-05      -4.781
	H_deCa            1.336e-05       0.209   7.079e-06      -5.150
	H_deMg            9.744e-06       0.153   5.164e-06      -5.287
	H_de-2            8.096e-06       0.127   4.290e-06      -5.368
	H_deH2            1.352e-06       0.021   7.165e-07      -6.145

H_dg          
	  6.378e-05  moles
	                                   Mole                     Log
	Species               Moles    Fraction    Molality    Molality

	H_dgH-            3.577e-05       0.561   1.896e-05      -4.722
	H_dgCa            1.530e-05       0.240   8.108e-06      -5.091
	H_dgMg            1.116e-05       0.175   5.914e-06      -5.228
	H_dgH2            1.548e-06       0.024   8.206e-07      -6.086
	H_dg-2            1.937e-09       0.000   1.027e-09      -8.989

H_e           
	  1.919e-02  moles
	                                   Mole                     Log
	Species               Moles    Fraction    Molality    Molality

	H_eH              1.505e-02       0.785   7.978e-03      -2.098
	H_e-              3.902e-03       0.203   2.068e-03      -2.684
	H_eCa+            1.227e-04       0.006   6.502e-05      -4.187
	H_eMg+            1.101e-04       0.006   5.835e-05      -4.234

H_f           
	  1.919e-02  moles
	                                   Mole                     Log
	Species               Moles    Fraction    Molality    Molality

	H_fH              1.883e-02       0.981   9.978e-03      -2.001
	H_fCa+            1.534e-04       0.008   8.131e-05      -4.090
	H_fMg+            1.377e-04       0.007   7.298e-05      -4.137
	H_f-              7.054e-05       0.004   3.739e-05      -4.427

H_g           
	  1.919e-02  moles
	                                   Mole                     Log
	Species               Moles    Fraction    Molality    Molality

	H_gH              1.890e-02       0.985   1.001e-02      -1.999
	H_gCa+            1.540e-04       0.008   8.161e-05      -4.088
	H_gMg+            1.382e-04       0.007   7.324e-05      -4.135
	H_g-              1.023e-06       0.000   5.423e-07      -6.266

H_h           
	  1.919e-02  moles
	                                   Mole                     Log
	Species               Moles    Fraction    Molality    Molality

	H_hH              1.890e-02       0.985   1.001e-02      -1.999
	H_hCa+            1.540e-04       0.008   8.161e-05      -4.088
	H_hMg+            1.382e-04       0.007   7.324e-05      -4.135
	H_h-              1.479e-08       0.000   7.840e-09      -8.106

Hfo           
	 -7.579e-16  Surface + diffuse layer charge, eq
	 -1.296e-06  Surface charge, eq
	 -1.042e-02  sigma, C/m²
	 -2.546e-02  psi, V
	  1.025e+00  -F*psi/RT
	  2.788e+00  exp(-F*psi/RT)
	  6.000e+02  specific area, m²/g
	  1.200e+01  m² for   2.000e-02 g

	Water in diffuse layer: 1.200e-08 kg,  0.0% of total DDL-water.

	Total moles in diffuse layer (excluding water), Donnan calculation.
	Donnan Layer potential, psi_DL = -1.189e-01 V.
	Boltzmann factor, exp(-psi_DL * F / RT) = 1.201e+02 (= c_DL / c_free if z is +1).

	Element       	     Moles
	Alanine       	  5.6509e-16
	Amm           	  5.1484e-10
	C             	  1.8920e-11
	Ca            	  2.9117e-07
	Cl            	  1.3157e-12
	Cysteine      	  1.5890e-15
	Ferric        	  8.5166e-15
	Glutamine     	  4.4733e-16
	Glycine       	  6.7895e-14
	H             	  2.1221e-09
	K             	  4.2696e-12
	Mg            	  3.4737e-07
	Na            	  1.8424e-08
	Nitrate       	  3.3752e-14
	O             	  6.8604e-11
	P             	  2.2019e-12
	Sulfate       	  1.0022e-12
	Threonine     	  4.4672e-16
	Tyrosine      	  4.4618e-16

Hfo_s         
	  6.000e-06  moles
	                                   Mole                     Log
	Species               Moles    Fraction    Molality    Molality

	Hfo_sOHCa+2       5.954e-06       0.992   3.155e-06      -5.501
	Hfo_sOH2+         3.692e-08       0.006   1.957e-08      -7.709
	Hfo_sOH           8.799e-09       0.001   4.663e-09      -8.331
	Hfo_sO-           4.804e-11       0.000   2.546e-11     -10.594

Hfo_w         
	  2.400e-03  moles
	                                   Mole                     Log
	Species               Moles    Fraction    Molality    Molality

	Hfo_wHPO4-        8.949e-04       0.373   4.742e-04      -3.324
	Hfo_wOH2+         8.448e-04       0.352   4.477e-04      -3.349
	Hfo_wOMg+         2.063e-04       0.086   1.093e-04      -3.961
	Hfo_wOH           2.013e-04       0.084   1.067e-04      -3.972
	Hfo_wH2PO4        1.530e-04       0.064   8.106e-05      -4.091
	Hfo_wPO4-2        8.891e-05       0.037   4.712e-05      -4.327
	Hfo_wOCa+         9.583e-06       0.004   5.079e-06      -5.294
	Hfo_wO-           1.099e-06       0.000   5.826e-07      -6.235
	Hfo_wSulfateO4-   7.583e-08       0.000   4.019e-08      -7.396
	Hfo_wOHSulfateO4-2   3.604e-08       0.000   1.910e-08      -7.719

-----------------------------Exchange composition------------------------------

X                2.000e-01 mol

	                               Equiv-    Equivalent      Log 
	Species             Moles      alents      Fraction     Gamma

	MgX2              5.198e-02   1.040e-01   5.198e-01     0.000
	CaX2              3.410e-02   6.821e-02   3.410e-01     0.000
	NaX               2.650e-02   2.650e-02   1.325e-01     0.000
	AmmH4X            1.296e-03   1.296e-03   6.480e-03     0.000
	KX                3.806e-05   3.806e-05   1.903e-04    -0.069
	HX                2.117e-06   2.117e-06   1.059e-05    -0.056

-----------------------------Solution composition------------------------------

	Elements           Molality       Moles

	Alanine           5.056e-04   9.541e-04
	Amm               3.594e-04   6.781e-04
	C                 6.509e-04   1.228e-03
	Ca                1.735e-03   3.273e-03
	Cl                1.317e-02   2.484e-02
	Cysteine          5.056e-04   9.541e-04
	Ferric            1.054e-08   1.988e-08
	Glutamine         5.056e-04   9.541e-04
	Glycine           5.056e-04   9.541e-04
	K                 2.967e-06   5.599e-06
	Mg                2.074e-03   3.913e-03
	Na                1.280e-02   2.416e-02
	Nitrate           3.377e-04   6.373e-04
	P                 8.284e-05   1.563e-04
	Sulfate           5.103e-04   9.628e-04
	Threonine         5.056e-04   9.541e-04
	Tyrosine          5.056e-04   9.541e-04

----------------------------Description of solution----------------------------

                                       pH  =   7.112      Charge balance
                                       pe  =  -7.281      Adjusted to redox equilibrium
      Specific Conductance (µS/cm,  15°C)  = 1513
                        Activity of water  =   0.999
                 Ionic strength (mol/kgw)  =   2.721e-02
                       Mass of water (kg)  =   1.887e+00
                 Total alkalinity (eq/kg)  =   3.647e-03
                       Total CO2 (mol/kg)  =   6.509e-04
                         Temperature (°C)  =  15.00
                  Electrical balance (eq)  =  -1.030e-11
 Percent error, 100*(Cat-|An|)/(Cat+|An|)  =  -0.00
                               Iterations  =   1
                                  Total H  = 2.094854e+02
                                  Total O  = 1.047474e+02

----------------------------Distribution of species----------------------------

                                               Log       Log       Log    mole V
   Species          Molality    Activity  Molality  Activity     Gamma   cm³/mol

   H+              8.775e-08   7.718e-08    -7.057    -7.112    -0.056      0.00
   OH-             6.851e-08   5.837e-08    -7.164    -7.234    -0.070     (0)  
   H2O             5.551e+01   9.994e-01     1.744    -0.000     0.000     18.03
Alanine       5.056e-04
   Alanine-2       5.056e-04   2.729e-04    -3.296    -3.564    -0.268     (0)  
   H2(Alanine)     1.198e-08   1.205e-08    -7.922    -7.919     0.003     (0)  
   H(Alanine)-     5.502e-09   4.716e-09    -8.259    -8.326    -0.067     (0)  
Amm           3.594e-04
   AmmH4+          3.573e-04   3.021e-04    -3.447    -3.520    -0.073     (0)  
   AmmH3           1.066e-06   1.073e-06    -5.972    -5.969     0.003     (0)  
   AmmH4SulfateO4-   1.024e-06   8.780e-07    -5.990    -6.056    -0.067     (0)  
C(4)          6.509e-04
   HCO3-           5.409e-04   4.667e-04    -3.267    -3.331    -0.064     (0)  
   CO2             9.395e-05   9.454e-05    -4.027    -4.024     0.003     (0)  
   MgHCO3+         6.956e-06   5.962e-06    -5.158    -5.225    -0.067     (0)  
   CaHCO3+         5.326e-06   4.596e-06    -5.274    -5.338    -0.064     (0)  
   NaHCO3          2.864e-06   2.882e-06    -5.543    -5.540     0.003     (0)  
   CO3-2           4.068e-07   2.255e-07    -6.391    -6.647    -0.256     (0)  
   CaCO3           2.989e-07   3.008e-07    -6.525    -6.522     0.003     (0)  
   MgCO3           2.071e-07   2.084e-07    -6.684    -6.681     0.003     (0)  
   NaCO3-          3.192e-08   2.736e-08    -7.496    -7.563    -0.067     (0)  
Ca            1.735e-03
   Ca+2            1.683e-03   9.328e-04    -2.774    -3.030    -0.256     (0)  
   CaSulfateO4     3.789e-05   3.813e-05    -4.421    -4.419     0.003     (0)  
   CaHPO4          7.469e-06   7.516e-06    -5.127    -5.124     0.003     (0)  
   CaHCO3+         5.326e-06   4.596e-06    -5.274    -5.338    -0.064     (0)  
   CaH2PO4+        5.359e-07   4.594e-07    -6.271    -6.338    -0.067     (0)  
   CaCO3           2.989e-07   3.008e-07    -6.525    -6.522     0.003     (0)  
   CaPO4-          2.212e-07   1.896e-07    -6.655    -6.722    -0.067     (0)  
   CaOH+           2.339e-09   2.005e-09    -8.631    -8.698    -0.067     (0)  
   CaHSulfateO4+   1.798e-11   1.541e-11   -10.745   -10.812    -0.067     (0)  
Cl            1.317e-02
   Cl-             1.317e-02   1.123e-02    -1.881    -1.950    -0.069     (0)  
   FerricCl+2      1.621e-17   8.753e-18   -16.790   -17.058    -0.268     (0)  
   FerricCl2+      7.108e-19   6.093e-19   -18.148   -18.215    -0.067     (0)  
   FerricCl3       6.797e-22   6.840e-22   -21.168   -21.165     0.003     (0)  
Cysteine      5.056e-04
   Cysteine-2      5.055e-04   2.729e-04    -3.296    -3.564    -0.268     (0)  
   H2(Cysteine)    9.735e-08   9.796e-08    -7.012    -7.009     0.003     (0)  
   H(Cysteine)-    1.260e-09   1.080e-09    -8.900    -8.966    -0.067     (0)  
Ferric        1.054e-08
   Ferric(OH)2+    5.505e-09   4.719e-09    -8.259    -8.326    -0.067     (0)  
   Ferric(OH)3     4.982e-09   5.014e-09    -8.303    -8.300     0.003     (0)  
   Ferric(OH)4-    4.557e-11   3.906e-11   -10.341   -10.408    -0.067     (0)  
   FerricOH+2      3.018e-12   1.629e-12   -11.520   -11.788    -0.268     (0)  
   FerricH2PO4+2   4.197e-16   2.266e-16   -15.377   -15.645    -0.268     (0)  
   FerricHPO4+     1.432e-16   1.227e-16   -15.844   -15.911    -0.067     (0)  
   Ferric+3        1.137e-16   3.584e-17   -15.944   -16.446    -0.501     (0)  
   FerricSulfateO4+   8.227e-17   7.052e-17   -16.085   -16.152    -0.067     (0)  
   FerricCl+2      1.621e-17   8.753e-18   -16.790   -17.058    -0.268     (0)  
   FerricCl2+      7.108e-19   6.093e-19   -18.148   -18.215    -0.067     (0)  
   Ferric(SulfateO4)2-   3.900e-19   3.343e-19   -18.409   -18.476    -0.067     (0)  
   Ferric2(OH)2+4   1.291e-21   1.096e-22   -20.889   -21.960    -1.071     (0)  
   FerricCl3       6.797e-22   6.840e-22   -21.168   -21.165     0.003     (0)  
   FerricHSulfateO4+2   2.755e-23   1.487e-23   -22.560   -22.828    -0.268     (0)  
   Ferric3(OH)4+5   1.323e-26   2.807e-28   -25.878   -27.552    -1.673     (0)  
Glutamine     5.056e-04
   Glutamine-2     5.056e-04   2.729e-04    -3.296    -3.564    -0.268     (0)  
   H(Glutamine)-   3.635e-09   3.116e-09    -8.439    -8.506    -0.067     (0)  
   H2(Glutamine)   2.180e-09   2.193e-09    -8.662    -8.659     0.003     (0)  
Glycine       5.056e-04
   Glycine-        5.056e-04   4.334e-04    -3.296    -3.363    -0.067     (0)  
   H2(Glycine)+    1.199e-08   1.028e-08    -7.921    -7.988    -0.067     (0)  
   H(Glycine)      7.272e-09   7.318e-09    -8.138    -8.136     0.003     (0)  
H(0)          3.384e-03
   H2              1.692e-03   1.703e-03    -2.772    -2.769     0.003     (0)  
K             2.967e-06
   K+              2.963e-06   2.527e-06    -5.528    -5.597    -0.069     (0)  
   KSulfateO4-     3.901e-09   3.344e-09    -8.409    -8.476    -0.067     (0)  
   KHPO4-          1.025e-10   8.783e-11    -9.989   -10.056    -0.067     (0)  
   KOH             1.127e-13   1.134e-13   -12.948   -12.945     0.003     (0)  
Mg            2.074e-03
   Mg+2            2.008e-03   1.129e-03    -2.697    -2.947    -0.250     (0)  
   MgSulfateO4     4.547e-05   4.576e-05    -4.342    -4.340     0.003     (0)  
   MgHPO4          1.223e-05   1.230e-05    -4.913    -4.910     0.003     (0)  
   MgHCO3+         6.956e-06   5.962e-06    -5.158    -5.225    -0.067     (0)  
   MgH2PO4+        8.262e-07   7.082e-07    -6.083    -6.150    -0.067     (0)  
   MgPO4-          3.612e-07   3.096e-07    -6.442    -6.509    -0.067     (0)  
   MgCO3           2.071e-07   2.084e-07    -6.684    -6.681     0.003     (0)  
   MgOH+           2.433e-08   2.086e-08    -7.614    -7.681    -0.067     (0)  
Na            1.280e-02
   Na+             1.279e-02   1.098e-02    -1.893    -1.959    -0.066     (0)  
   NaSulfateO4-    1.357e-05   1.163e-05    -4.867    -4.934    -0.067     (0)  
   NaHCO3          2.864e-06   2.882e-06    -5.543    -5.540     0.003     (0)  
   NaHPO4-         4.454e-07   3.818e-07    -6.351    -6.418    -0.067     (0)  
   NaCO3-          3.192e-08   2.736e-08    -7.496    -7.563    -0.067     (0)  
   NaOH            9.337e-10   9.396e-10    -9.030    -9.027     0.003     (0)  
Nitrate       3.377e-04
   NitrateO3-      3.377e-04   2.895e-04    -3.471    -3.538    -0.067     (0)  
O(0)          0.000e+00
   O2              0.000e+00   0.000e+00   -90.185   -90.182     0.003     (0)  
P             8.284e-05
   HPO4-2          3.337e-05   1.783e-05    -4.477    -4.749    -0.272     (0)  
   H2PO4-          2.738e-05   2.349e-05    -4.563    -4.629    -0.067     (0)  
   MgHPO4          1.223e-05   1.230e-05    -4.913    -4.910     0.003     (0)  
   CaHPO4          7.469e-06   7.516e-06    -5.127    -5.124     0.003     (0)  
   MgH2PO4+        8.262e-07   7.082e-07    -6.083    -6.150    -0.067     (0)  
   CaH2PO4+        5.359e-07   4.594e-07    -6.271    -6.338    -0.067     (0)  
   NaHPO4-         4.454e-07   3.818e-07    -6.351    -6.418    -0.067     (0)  
   MgPO4-          3.612e-07   3.096e-07    -6.442    -6.509    -0.067     (0)  
   CaPO4-          2.212e-07   1.896e-07    -6.655    -6.722    -0.067     (0)  
[...]

H_cd          
	  6.378e-05  moles
	                                   Mole                     Log
	Species               Moles    Fraction    Molality    Molality

	H_cdCa            3.330e-05       0.522   1.765e-05      -4.753
	H_cdMg            2.623e-05       0.411   1.390e-05      -4.857
	H_cd-2            4.117e-06       0.065   2.182e-06      -5.661
	H_cdH-            1.300e-07       0.002   6.892e-08      -7.162
	H_cdH2            3.188e-10       0.000   1.690e-10      -9.772

H_cf          
	  6.378e-02  moles
	                                   Mole                     Log
	Species               Moles    Fraction    Molality    Molality

	H_cfH-            5.913e-02       0.927   3.134e-02      -1.504
	H_cfCa            2.400e-03       0.038   1.272e-03      -2.895
	H_cfMg            1.805e-03       0.028   9.570e-04      -3.019
	H_cf-2            3.036e-04       0.005   1.609e-04      -3.793
	H_cfH2            1.450e-04       0.002   7.684e-05      -4.114

H_ch          
	  6.378e-02  moles
	                                   Mole                     Log
	Species               Moles    Fraction    Molality    Molality

	H_chH-            5.941e-02       0.931   3.149e-02      -1.502
	H_chCa            2.411e-03       0.038   1.278e-03      -2.893
	H_chMg            1.814e-03       0.028   9.616e-04      -3.017
	H_chH2            1.457e-04       0.002   7.720e-05      -4.112
	H_ch-2            6.373e-08       0.000   3.378e-08      -7.471

H_d           
	  3.837e-02  moles
	                                   Mole                     Log
	Species               Moles    Fraction    Molality    Molality

	H_dCa+            1.521e-02       0.396   8.060e-03      -2.094
	H_dMg+            1.508e-02       0.393   7.993e-03      -2.097
	H_d-              7.836e-03       0.204   4.154e-03      -2.382
	H_dH              2.475e-04       0.006   1.312e-04      -3.882

H_de          
	  6.378e-05  moles
	                                   Mole                     Log
	Species               Moles    Fraction    Molality    Molality

	H_deH-            2.769e-05       0.434   1.468e-05      -4.833
	H_deCa            1.448e-05       0.227   7.676e-06      -5.115
	H_deMg            1.089e-05       0.171   5.774e-06      -5.239
	H_de-2            9.838e-06       0.154   5.214e-06      -5.283
	H_deH2            8.747e-07       0.014   4.636e-07      -6.334

H_dg          
	  6.378e-05  moles
	                                   Mole                     Log
	Species               Moles    Fraction    Molality    Molality

	H_dgH-            3.274e-05       0.513   1.735e-05      -4.761
	H_dgCa            1.712e-05       0.268   9.075e-06      -5.042
	H_dgMg            1.288e-05       0.202   6.827e-06      -5.166
	H_dgH2            1.034e-06       0.016   5.481e-07      -6.261
	H_dg-2            2.430e-09       0.000   1.288e-09      -8.890

H_e           
	  1.919e-02  moles
	                                   Mole                     Log
	Species               Moles    Fraction    Molality    Molality

	H_eH              1.396e-02       0.728   7.401e-03      -2.131
	H_e-              4.960e-03       0.258   2.629e-03      -2.580
	H_eCa+            1.391e-04       0.007   7.374e-05      -4.132
	H_eMg+            1.288e-04       0.007   6.825e-05      -4.166

H_f           
	  1.919e-02  moles
	                                   Mole                     Log
	Species               Moles    Fraction    Molality    Molality

	H_fH              1.873e-02       0.976   9.930e-03      -2.003
	H_fCa+            1.867e-04       0.010   9.894e-05      -4.005
	H_fMg+            1.728e-04       0.009   9.157e-05      -4.038
	H_f-              9.620e-05       0.005   5.099e-05      -4.293

H_g           
	  1.919e-02  moles
	                                   Mole                     Log
	Species               Moles    Fraction    Molality    Molality

	H_gH              1.883e-02       0.981   9.979e-03      -2.001
	H_gCa+            1.876e-04       0.010   9.943e-05      -4.002
	H_gMg+            1.736e-04       0.009   9.203e-05      -4.036
	H_g-              1.397e-06       0.000   7.407e-07      -6.130

H_h           
	  1.919e-02  moles
	                                   Mole                     Log
	Species               Moles    Fraction    Molality    Molality

	H_hH              1.883e-02       0.981   9.980e-03      -2.001
	H_hCa+            1.876e-04       0.010   9.944e-05      -4.002
	H_hMg+            1.736e-04       0.009   9.203e-05      -4.036
	H_h-              2.020e-08       0.000   1.071e-08      -7.970

Hfo           
	 -3.682e-16  Surface + diffuse layer charge, eq
	 -1.433e-06  Surface charge, eq
	 -1.152e-02  sigma, C/m²
	 -2.289e-02  psi, V
	  9.219e-01  -F*psi/RT
	  2.514e+00  exp(-F*psi/RT)
	  6.000e+02  specific area, m²/g
	  1.200e+01  m² for   2.000e-02 g

	Water in diffuse layer: 1.200e-08 kg,  0.0% of total DDL-water.

	Total moles in diffuse layer (excluding water), Donnan calculation.
	Donnan Layer potential, psi_DL = -1.130e-01 V.
	Boltzmann factor, exp(-psi_DL * F / RT) = 9.458e+01 (= c_DL / c_free if z is +1).

	Element       	     Moles
	Alanine       	  8.0056e-16
	Amm           	  4.8722e-10
	C             	  1.7545e-10
	Ca            	  3.1762e-07
	Cl            	  2.2063e-12
	Cysteine      	  1.6663e-15
	Ferric        	  6.6566e-15
	Glutamine     	  7.0092e-16
	Glycine       	  7.7134e-14
	H             	  2.4261e-09
	K             	  1.8759e-11
	Mg            	  3.8844e-07
	Na            	  2.0332e-08
	Nitrate       	  3.2143e-13
	O             	  5.4423e-10
	P             	  2.6294e-12
	Sulfate       	  3.5541e-12
	Threonine     	  7.0040e-16
	Tyrosine      	  6.9996e-16

Hfo_s         
	  6.000e-06  moles
	                                   Mole                     Log
	Species               Moles    Fraction    Molality    Molality

	Hfo_sOHCa+2       5.968e-06       0.995   3.163e-06      -5.500
	Hfo_sOH2+         2.517e-08       0.004   1.334e-08      -7.875
	Hfo_sOH           6.835e-09       0.001   3.623e-09      -8.441
	Hfo_sO-           4.253e-11       0.000   2.254e-11     -10.647

Hfo_w         
	  2.400e-03  moles
	                                   Mole                     Log
	Species               Moles    Fraction    Molality    Molality

	Hfo_wHPO4-        8.867e-04       0.369   4.700e-04      -3.328
	Hfo_wOH2+         7.465e-04       0.311   3.957e-04      -3.403
	Hfo_wOMg+         3.150e-04       0.131   1.670e-04      -3.777
	Hfo_wOH           2.027e-04       0.084   1.075e-04      -3.969
	Hfo_wH2PO4        1.330e-04       0.055   7.049e-05      -4.152
	Hfo_wPO4-2        1.004e-04       0.042   5.321e-05      -4.274
	Hfo_wOCa+         1.419e-05       0.006   7.521e-06      -5.124
	Hfo_wO-           1.261e-06       0.001   6.686e-07      -6.175
	Hfo_wSulfateO4-   1.817e-07       0.000   9.633e-08      -7.016
	Hfo_wOHSulfateO4-2   9.837e-08       0.000   5.214e-08      -7.283

-----------------------------Exchange composition------------------------------

X                2.000e-01 mol

	                               Equiv-    Equivalent      Log 
	Species             Moles      alents      Fraction     Gamma

	MgX2              5.207e-02   1.041e-01   5.207e-01     0.000
	CaX2              3.313e-02   6.625e-02   3.313e-01     0.000
	NaX               2.827e-02   2.827e-02   1.413e-01     0.000
	AmmH4X            1.177e-03   1.177e-03   5.885e-03     0.000
	KX                1.661e-04   1.661e-04   8.304e-04    -0.083
	HX                1.643e-06   1.643e-06   8.216e-06    -0.064

-----------------------------Solution composition------------------------------

	Elements           Molality       Moles

	Alanine           5.057e-04   9.541e-04
	Amm               4.332e-04   8.173e-04
	C                 4.842e-03   9.135e-03
	Ca                3.168e-03   5.977e-03
	Cl                1.739e-02   3.281e-02
	Cysteine          5.057e-04   9.541e-04
	Ferric            1.053e-08   1.986e-08
	Glutamine         5.057e-04   9.541e-04
	Glycine           5.057e-04   9.541e-04
	K                 1.658e-05   3.127e-05
	Mg                3.888e-03   7.335e-03
	Na                1.798e-02   3.393e-02
	Nitrate           2.533e-03   4.780e-03
	P                 9.164e-05   1.729e-04
	Sulfate           1.354e-03   2.554e-03
	Threonine         5.057e-04   9.541e-04
	Tyrosine          5.057e-04   9.541e-04

----------------------------Description of solution----------------------------

                                       pH  =   7.124      Charge balance
                                       pe  =  -7.731      Adjusted to redox equilibrium
      Specific Conductance (µS/cm,  15°C)  = 2348
                        Activity of water  =   0.999
                 Ionic strength (mol/kgw)  =   4.182e-02
                       Mass of water (kg)  =   1.887e+00
                 Total alkalinity (eq/kg)  =   7.296e-03
                       Total CO2 (mol/kg)  =   4.842e-03
                         Temperature (°C)  =  15.00
                  Electrical balance (eq)  =  -1.030e-11
 Percent error, 100*(Cat-|An|)/(Cat+|An|)  =  -0.00
                               Iterations  =   1
                                  Total H  = 2.094988e+02
                                  Total O  = 1.047712e+02

----------------------------Distribution of species----------------------------

                                               Log       Log       Log    mole V
   Species          Molality    Activity  Molality  Activity     Gamma   cm³/mol

   H+              8.705e-08   7.511e-08    -7.060    -7.124    -0.064      0.00
   OH-             7.259e-08   5.994e-08    -7.139    -7.222    -0.083     (0)  
   H2O             5.551e+01   9.989e-01     1.744    -0.000     0.000     18.03
Alanine       5.057e-04
   Alanine-2       5.057e-04   2.446e-04    -3.296    -3.612    -0.316     (0)  
   H2(Alanine)     1.013e-08   1.023e-08    -7.994    -7.990     0.004     (0)  
   H(Alanine)-     4.931e-09   4.112e-09    -8.307    -8.386    -0.079     (0)  
Amm           4.332e-04
   AmmH4+          4.293e-04   3.506e-04    -3.367    -3.455    -0.088     (0)  
   AmmH4SulfateO4-   2.694e-06   2.246e-06    -5.570    -5.648    -0.079     (0)  
   AmmH3           1.267e-06   1.280e-06    -5.897    -5.893     0.004     (0)  
C(4)          4.842e-03
   HCO3-           4.000e-03   3.363e-03    -2.398    -2.473    -0.075     (0)  
   CO2             6.569e-04   6.633e-04    -3.182    -3.178     0.004     (0)  
   MgHCO3+         8.432e-05   7.031e-05    -4.074    -4.153    -0.079     (0)  
   CaHCO3+         6.251e-05   5.255e-05    -4.204    -4.279    -0.075     (0)  
   NaHCO3          2.805e-05   2.832e-05    -4.552    -4.548     0.004     (0)  
   CaCO3           3.500e-06   3.534e-06    -5.456    -5.452     0.004     (0)  
   CO3-2           3.343e-06   1.670e-06    -5.476    -5.777    -0.302     (0)  
   MgCO3           2.501e-06   2.525e-06    -5.602    -5.598     0.004     (0)  
   NaCO3-          3.313e-07   2.763e-07    -6.480    -6.559    -0.079     (0)  
Ca            3.168e-03
   Ca+2            2.958e-03   1.480e-03    -2.529    -2.830    -0.301     (0)  
   CaSulfateO4     1.321e-04   1.334e-04    -3.879    -3.875     0.004     (0)  
   CaHCO3+         6.251e-05   5.255e-05    -4.204    -4.279    -0.075     (0)  
   CaHPO4          1.077e-05   1.087e-05    -4.968    -4.964     0.004     (0)  
   CaCO3           3.500e-06   3.534e-06    -5.456    -5.452     0.004     (0)  
   CaH2PO4+        7.752e-07   6.465e-07    -6.111    -6.189    -0.079     (0)  
   CaPO4-          3.378e-07   2.817e-07    -6.471    -6.550    -0.079     (0)  
   CaOH+           3.918e-09   3.267e-09    -8.407    -8.486    -0.079     (0)  
   CaHSulfateO4+   6.290e-11   5.245e-11   -10.201   -10.280    -0.079     (0)  
Cl            1.739e-02
   Cl-             1.739e-02   1.438e-02    -1.760    -1.842    -0.083     (0)  
   FerricCl+2      2.140e-17   1.035e-17   -16.670   -16.985    -0.316     (0)  
   FerricCl2+      1.107e-18   9.228e-19   -17.956   -18.035    -0.079     (0)  
   FerricCl3       1.314e-21   1.327e-21   -20.881   -20.877     0.004     (0)  
Cysteine      5.057e-04
   Cysteine-2      5.056e-04   2.445e-04    -3.296    -3.612    -0.316     (0)  
   H2(Cysteine)    8.232e-08   8.312e-08    -7.084    -7.080     0.004     (0)  
   H(Cysteine)-    1.130e-09   9.419e-10    -8.947    -9.026    -0.079     (0)  
Ferric        1.053e-08
   Ferric(OH)2+    5.509e-09   4.594e-09    -8.259    -8.338    -0.079     (0)  
   Ferric(OH)3     4.966e-09   5.014e-09    -8.304    -8.300     0.004     (0)  
   Ferric(OH)4-    4.811e-11   4.012e-11   -10.318   -10.397    -0.079     (0)  
   FerricOH+2      3.194e-12   1.545e-12   -11.496   -11.811    -0.316     (0)  
   FerricH2PO4+2   3.835e-16   1.855e-16   -15.416   -15.732    -0.316     (0)  
   FerricSulfateO4+   1.721e-16   1.435e-16   -15.764   -15.843    -0.079     (0)  
   Ferric+3        1.248e-16   3.308e-17   -15.904   -16.480    -0.576     (0)  
   FerricHPO4+     1.238e-16   1.032e-16   -15.907   -15.986    -0.079     (0)  
   FerricCl+2      2.140e-17   1.035e-17   -16.670   -16.985    -0.316     (0)  
   Ferric(SulfateO4)2-   1.798e-18   1.499e-18   -17.745   -17.824    -0.079     (0)  
   FerricCl2+      1.107e-18   9.228e-19   -17.956   -18.035    -0.079     (0)  
   Ferric2(OH)2+4   1.801e-21   9.848e-23   -20.745   -22.007    -1.262     (0)  
   FerricCl3       1.314e-21   1.327e-21   -20.881   -20.877     0.004     (0)  
   FerricHSulfateO4+2   6.089e-23   2.944e-23   -22.215   -22.531    -0.316     (0)  
   Ferric3(OH)4+5   2.303e-26   2.456e-28   -25.638   -27.610    -1.972     (0)  
Glutamine     5.057e-04
   Glutamine-2     5.057e-04   2.446e-04    -3.296    -3.612    -0.316     (0)  
   H(Glutamine)-   3.258e-09   2.717e-09    -8.487    -8.566    -0.079     (0)  
   H2(Glutamine)   1.843e-09   1.861e-09    -8.734    -8.730     0.004     (0)  
Glycine       5.057e-04
   Glycine-        5.057e-04   4.217e-04    -3.296    -3.375    -0.079     (0)  
   H2(Glycine)+    1.136e-08   9.471e-09    -7.945    -8.024    -0.079     (0)  
   H(Glycine)      6.863e-09   6.930e-09    -8.163    -8.159     0.004     (0)  
H(0)          2.538e-02
   H2              1.269e-02   1.281e-02    -1.896    -1.892     0.004     (0)  
K             1.658e-05
   K+              1.653e-05   1.367e-05    -4.782    -4.864    -0.083     (0)  
   KSulfateO4-     4.782e-08   3.988e-08    -7.320    -7.399    -0.079     (0)  
   KHPO4-          5.193e-10   4.330e-10    -9.285    -9.363    -0.079     (0)  
   KOH             6.242e-13   6.303e-13   -12.205   -12.200     0.004     (0)  
Mg            3.888e-03
   Mg+2            3.618e-03   1.848e-03    -2.442    -2.733    -0.292     (0)  
   MgSulfateO4     1.635e-04   1.651e-04    -3.787    -3.782     0.004     (0)  
   MgHCO3+         8.432e-05   7.031e-05    -4.074    -4.153    -0.079     (0)  
   MgHPO4          1.817e-05   1.835e-05    -4.741    -4.736     0.004     (0)  
   MgCO3           2.501e-06   2.525e-06    -5.602    -5.598     0.004     (0)  
   MgH2PO4+        1.233e-06   1.028e-06    -5.909    -5.988    -0.079     (0)  
   MgPO4-          5.689e-07   4.744e-07    -6.245    -6.324    -0.079     (0)  
   MgOH+           4.204e-08   3.506e-08    -7.376    -7.455    -0.079     (0)  
Na            1.798e-02
   Na+             1.791e-02   1.498e-02    -1.747    -1.825    -0.078     (0)  
   NaSulfateO4-    4.192e-05   3.496e-05    -4.378    -4.456    -0.079     (0)  
   NaHCO3          2.805e-05   2.832e-05    -4.552    -4.548     0.004     (0)  
   NaHPO4-         5.689e-07   4.744e-07    -6.245    -6.324    -0.079     (0)  
   NaCO3-          3.313e-07   2.763e-07    -6.480    -6.559    -0.079     (0)  
   NaOH            1.303e-09   1.316e-09    -8.885    -8.881     0.004     (0)  
Nitrate       2.533e-03
   NitrateO3-      2.533e-03   2.113e-03    -2.596    -2.675    -0.079     (0)  
O(0)          0.000e+00
   O2              0.000e+00   0.000e+00   -91.940   -91.936     0.004     (0)  
P             9.164e-05
   HPO4-2          3.424e-05   1.625e-05    -4.465    -4.789    -0.324     (0)  
   H2PO4-          2.498e-05   2.083e-05    -4.602    -4.681    -0.079     (0)  
   MgHPO4          1.817e-05   1.835e-05    -4.741    -4.736     0.004     (0)  
   CaHPO4          1.077e-05   1.087e-05    -4.968    -4.964     0.004     (0)  
   MgH2PO4+        1.233e-06   1.028e-06    -5.909    -5.988    -0.079     (0)  
   CaH2PO4+        7.752e-07   6.465e-07    -6.111    -6.189    -0.079     (0)  
   MgPO4-          5.689e-07   4.744e-07    -6.245    -6.324    -0.079     (0)  
   NaHPO4-         5.689e-07   4.744e-07    -6.245    -6.324    -0.079     (0)  
   CaPO4-          3.378e-07   2.817e-07    -6.471    -6.550    -0.079     (0)  
   KHPO4-          5.193e-10   4.330e-10    -9.285    -9.363    -0.079     (0)  
   PO4-3           4.245e-10   7.931e-11    -9.372   -10.101    -0.729     (0)  
   FerricH2PO4+2   3.835e-16   1.855e-16   -15.416   -15.732    -0.316     (0)  
   FerricHPO4+     1.238e-16   1.032e-16   -15.907   -15.986    -0.079     (0)  
Sulfate       1.354e-03
   SulfateO4-2     1.014e-03   4.974e-04    -2.994    -3.303    -0.309     (0)  
   MgSulfateO4     1.635e-04   1.651e-04    -3.787    -3.782     0.004     (0)  
   CaSulfateO4     1.321e-04   1.334e-04    -3.879    -3.875     0.004     (0)  
   NaSulfateO4-    4.192e-05   3.496e-05    -4.378    -4.456    -0.079     (0)  
   AmmH4SulfateO4-   2.694e-06   2.246e-06    -5.570    -5.648    -0.079     (0)  
   KSulfateO4-     4.782e-08   3.988e-08    -7.320    -7.399    -0.079     (0)  
   HSulfateO4-     3.534e-09   2.947e-09    -8.452    -8.531    -0.079     (0)  
   CaHSulfateO4+   6.290e-11   5.245e-11   -10.201   -10.280    -0.079     (0)  
   FerricSulfateO4+   1.721e-16   1.435e-16   -15.764   -15.843    -0.079     (0)  
   Ferric(SulfateO4)2-   1.798e-18   1.499e-18   -17.745   -17.824    -0.079     (0)  
   FerricHSulfateO4+2   6.089e-23   2.944e-23   -22.215   -22.531    -0.316     (0)  
Threonine     5.057e-04
   Threonine-2     5.057e-04   2.446e-04    -3.296    -3.612    -0.316     (0)  
   H(Threonine)-   3.111e-09   2.595e-09    -8.507    -8.586    -0.079     (0)  
   H2(Threonine)   1.801e-09   1.819e-09    -8.744    -8.740     0.004     (0)  
Tyrosine      5.057e-04
   Tyrosine-2      5.057e-04   2.446e-04    -3.296    -3.612    -0.316     (0)  
   H(Tyrosine)-    3.491e-09   2.911e-09    -8.457    -8.536    -0.079     (0)  
   H2(Tyrosine)    1.760e-09   1.777e-09    -8.754    -8.750     0.004     (0)  

------------------------------Saturation indices-------------------------------

  Phase               SI** log IAP   log K(288 K,   1 atm)

  FixpH            -7.12     -7.12    0.00  H+
  H2(g)             1.21     -1.89   -3.11  H2
  H2O(g)           -1.78     -0.00    1.78  H2O
  Halite           -5.23     -3.67    1.56  NaCl
  Hydroxyapatite    2.48     -0.02   -2.50  Ca5(PO4)3OH
  redoxAnhydrite   -1.80     -6.13   -4.34  CaSulfateO4
  redoxAragonite   -0.33     -8.61   -8.28  CaCO3
  redoxCalcite     -0.18     -8.61   -8.43  CaCO3
  redoxCO2(g)      -1.84     -3.18   -1.34  CO2
  redoxDolomite    -0.27    -17.12  -16.85  CaMg(CO3)2
  redoxFe(OH)3(a)  -0.00      4.89    4.89  Ferric(OH)3
  redoxGoethite     5.52      4.89   -0.63  FerricOOH
  redoxGypsum      -1.55     -6.13   -4.58  CaSulfateO4:2H2O
  redoxHematite    13.01      9.78   -3.22  Ferric2O3
  redoxJarosite-K  -9.76    -18.17   -8.41  KFerric3(SulfateO4)2(OH)6
  redoxNH3(g)      -7.87     -5.89    1.98  AmmH3

**For a gas, SI = log10(fugacity). Fugacity = pressure * phi / 1 atm.
  For ideal gases, phi = 1.

------------------
End of simulation.
------------------

------------------------------------
Reading input data for simulation 4.
------------------------------------

---------------------------------
End of Run after 0.07725 Seconds.
---------------------------------

