   Input file: vanD_peat_fluc.phrq
  Output file: vanD_peat_fluc.phrq.out
Database file: ../database/redox.dat

------------------
Reading data base.
------------------

	SOLUTION_MASTER_SPECIES
	SOLUTION_SPECIES
	PHASES
	EXCHANGE_MASTER_SPECIES
	EXCHANGE_SPECIES
	SURFACE_MASTER_SPECIES
	SURFACE_SPECIES
	RATES
	END
------------------------------------
Reading input data for simulation 1.
------------------------------------

	DATABASE ../database/redox.dat
	TITLE simulate soil solution
	CALCULATE_VALUES
	SC_T25
	start
	10 sc25 = SC/(1+0.021*(temperature-25))
	20 SAVE sc25
	end
	SOLUTION 1
	units umol/L
	pH    7  charge
	temperature 	 15
	water         1.887   #default is 1 kg
	P           81.88
	Amm         344
	Na          11950
	Ca          1520
	Cl          12500 
	Sulfate        380 
	K           1.3
	Mg          1810
	C(4)        5.37  
	Nitrate        0
	Ferric       0.61
	Alanine      505
	Cysteine     505
	Glycine      505
	Glutamine    505
	Threonine    505
	Tyrosine     505
	  SAVE SOLUTION 1
	END
-----
TITLE
-----

 simulate soil solution

-------------------------------------------
Beginning of initial solution calculations.
-------------------------------------------

Initial solution 1.	

-----------------------------Solution composition------------------------------

	Elements           Molality       Moles

	Alanine           5.056e-04   9.541e-04
	Amm               3.444e-04   6.499e-04
	C(4)              5.377e-06   1.015e-05
	Ca                1.522e-03   2.872e-03
	Cl                1.252e-02   2.362e-02
	Cysteine          5.056e-04   9.541e-04
	Ferric            6.108e-07   1.152e-06
	Glutamine         5.056e-04   9.541e-04
	Glycine           5.056e-04   9.541e-04
	K                 1.302e-06   2.456e-06
	Mg                1.812e-03   3.420e-03
	Na                1.196e-02   2.258e-02
	P                 8.198e-05   1.547e-04
	Sulfate           3.805e-04   7.179e-04
	Threonine         5.056e-04   9.541e-04
	Tyrosine          5.056e-04   9.541e-04

----------------------------Description of solution----------------------------

                                       pH  =   7.116      Charge balance
                                       pe  =   4.000    
      Specific Conductance (µS/cm,  15°C)  = 1380
                        Activity of water  =   0.999
                 Ionic strength (mol/kgw)  =   2.494e-02
                       Mass of water (kg)  =   1.887e+00
                 Total alkalinity (eq/kg)  =   3.093e-03
                       Total CO2 (mol/kg)  =   5.377e-06
                         Temperature (°C)  =  15.00
                  Electrical balance (eq)  =   7.921e-16
 Percent error, 100*(Cat-|An|)/(Cat+|An|)  =   0.00
                               Iterations  =   9
                                  Total H  = 2.094833e+02
                                  Total O  = 1.047438e+02

----------------------------Distribution of species----------------------------

                                               Log       Log       Log    mole V
   Species          Molality    Activity  Molality  Activity     Gamma   cm³/mol

   H+              8.667e-08   7.652e-08    -7.062    -7.116    -0.054      0.00
   OH-             6.871e-08   5.887e-08    -7.163    -7.230    -0.067     (0)  
   H2O             5.551e+01   9.995e-01     1.744    -0.000     0.000     18.03
Alanine       5.056e-04
   Alanine-2       5.056e-04   2.787e-04    -3.296    -3.555    -0.259     (0)  
   H2(Alanine)     1.203e-08   1.210e-08    -7.920    -7.917     0.002     (0)  
   H(Alanine)-     5.541e-09   4.774e-09    -8.256    -8.321    -0.065     (0)  
Amm           3.444e-04
   AmmH4+          3.426e-04   2.915e-04    -3.465    -3.535    -0.070     (0)  
   AmmH3           1.038e-06   1.044e-06    -5.984    -5.981     0.002     (0)  
   AmmH4SulfateO4-   7.595e-07   6.545e-07    -6.119    -6.184    -0.065     (0)  
C(4)          5.377e-06
   HCO3-           4.480e-06   3.884e-06    -5.349    -5.411    -0.062     (0)  
   CO2             7.756e-07   7.800e-07    -6.110    -6.108     0.002     (0)  
   MgHCO3+         5.167e-08   4.452e-08    -7.287    -7.351    -0.065     (0)  
   CaHCO3+         3.977e-08   3.448e-08    -7.400    -7.462    -0.062     (0)  
   NaHCO3          2.241e-08   2.254e-08    -7.649    -7.647     0.002     (0)  
   CO3-2           3.349e-09   1.893e-09    -8.475    -8.723    -0.248     (0)  
   CaCO3           2.263e-09   2.276e-09    -8.645    -8.643     0.002     (0)  
   MgCO3           1.560e-09   1.569e-09    -8.807    -8.804     0.002     (0)  
   NaCO3-          2.505e-10   2.159e-10    -9.601    -9.666    -0.065     (0)  
Ca            1.522e-03
   Ca+2            1.488e-03   8.409e-04    -2.827    -3.075    -0.248     (0)  
   CaSulfateO4     2.639e-05   2.655e-05    -4.578    -4.576     0.002     (0)  
   CaHPO4          6.946e-06   6.986e-06    -5.158    -5.156     0.002     (0)  
   CaH2PO4+        4.913e-07   4.233e-07    -6.309    -6.373    -0.065     (0)  
   CaPO4-          2.063e-07   1.777e-07    -6.686    -6.750    -0.065     (0)  
   CaHCO3+         3.977e-08   3.448e-08    -7.400    -7.462    -0.062     (0)  
   CaCO3           2.263e-09   2.276e-09    -8.645    -8.643     0.002     (0)  
   CaOH+           2.115e-09   1.823e-09    -8.675    -8.739    -0.065     (0)  
   CaHSulfateO4+   1.235e-11   1.064e-11   -10.908   -10.973    -0.065     (0)  
Cl            1.252e-02
   Cl-             1.252e-02   1.073e-02    -1.903    -1.969    -0.067     (0)  
   FerricCl+2      8.635e-16   4.760e-16   -15.064   -15.322    -0.259     (0)  
   FerricCl2+      3.676e-17   3.168e-17   -16.435   -16.499    -0.065     (0)  
   FerricCl3       3.380e-20   3.400e-20   -19.471   -19.469     0.002     (0)  
Cysteine      5.056e-04
   Cysteine-2      5.055e-04   2.786e-04    -3.296    -3.555    -0.259     (0)  
   H2(Cysteine)    9.776e-08   9.832e-08    -7.010    -7.007     0.002     (0)  
   H(Cysteine)-    1.269e-09   1.094e-09    -8.896    -8.961    -0.065     (0)  
Ferric        6.108e-07
   Ferric(OH)2+    3.169e-07   2.731e-07    -6.499    -6.564    -0.065     (0)  
   Ferric(OH)3     2.910e-07   2.927e-07    -6.536    -6.534     0.002     (0)  
   Ferric(OH)4-    2.669e-09   2.300e-09    -8.574    -8.638    -0.065     (0)  
   FerricOH+2      1.696e-10   9.348e-11    -9.771   -10.029    -0.259     (0)  
   FerricH2PO4+2   2.390e-14   1.317e-14   -13.622   -13.880    -0.259     (0)  
   FerricHPO4+     8.354e-15   7.198e-15   -14.078   -14.143    -0.065     (0)  
   Ferric+3        6.254e-15   2.039e-15   -14.204   -14.691    -0.487     (0)  
   FerricSulfateO4+   3.596e-15   3.098e-15   -14.444   -14.509    -0.065     (0)  
   FerricCl+2      8.635e-16   4.760e-16   -15.064   -15.322    -0.259     (0)  
   FerricCl2+      3.676e-17   3.168e-17   -16.435   -16.499    -0.065     (0)  
   Ferric(SulfateO4)2-   1.317e-17   1.134e-17   -16.881   -16.945    -0.065     (0)  
   Ferric2(OH)2+4   3.908e-18   3.607e-19   -17.408   -18.443    -1.035     (0)  
   FerricCl3       3.380e-20   3.400e-20   -19.471   -19.469     0.002     (0)  
   Ferric3(OH)4+5   2.213e-21   5.347e-23   -20.655   -22.272    -1.617     (0)  
   FerricHSulfateO4+2   1.175e-21   6.477e-22   -20.930   -21.189    -0.259     (0)  
Glutamine     5.056e-04
   Glutamine-2     5.056e-04   2.787e-04    -3.296    -3.555    -0.259     (0)  
   H(Glutamine)-   3.661e-09   3.154e-09    -8.436    -8.501    -0.065     (0)  
   H2(Glutamine)   2.189e-09   2.202e-09    -8.660    -8.657     0.002     (0)  
Glycine       5.056e-04
   Glycine-        5.056e-04   4.357e-04    -3.296    -3.361    -0.065     (0)  
   H2(Glycine)+    1.179e-08   1.016e-08    -7.929    -7.993    -0.065     (0)  
   H(Glycine)      7.252e-09   7.293e-09    -8.140    -8.137     0.002     (0)  
H(0)          9.138e-26
   H2              4.569e-26   4.596e-26   -25.340   -25.338     0.002     (0)  
K             1.302e-06
   K+              1.300e-06   1.115e-06    -5.886    -5.953    -0.067     (0)  
   KSulfateO4-     1.323e-09   1.140e-09    -8.878    -8.943    -0.065     (0)  
   KHPO4-          4.639e-11   3.997e-11   -10.334   -10.398    -0.065     (0)  
   KOH             5.021e-14   5.050e-14   -13.299   -13.297     0.002     (0)  
Mg            1.812e-03
   Mg+2            1.768e-03   1.013e-03    -2.752    -2.994    -0.242     (0)  
   MgSulfateO4     3.153e-05   3.171e-05    -4.501    -4.499     0.002     (0)  
   MgHPO4          1.132e-05   1.138e-05    -4.946    -4.944     0.002     (0)  
   MgH2PO4+        7.538e-07   6.495e-07    -6.123    -6.187    -0.065     (0)  
   MgPO4-          3.352e-07   2.889e-07    -6.475    -6.539    -0.065     (0)  
   MgHCO3+         5.167e-08   4.452e-08    -7.287    -7.351    -0.065     (0)  
   MgOH+           2.191e-08   1.887e-08    -7.659    -7.724    -0.065     (0)  
   MgCO3           1.560e-09   1.569e-09    -8.807    -8.804     0.002     (0)  
Na            1.196e-02
   Na+             1.195e-02   1.032e-02    -1.922    -1.986    -0.064     (0)  
   NaSulfateO4-    9.798e-06   8.443e-06    -5.009    -5.074    -0.065     (0)  
   NaHPO4-         4.294e-07   3.700e-07    -6.367    -6.432    -0.065     (0)  
   NaHCO3          2.241e-08   2.254e-08    -7.649    -7.647     0.002     (0)  
   NaOH            8.855e-10   8.906e-10    -9.053    -9.050     0.002     (0)  
   NaCO3-          2.505e-10   2.159e-10    -9.601    -9.666    -0.065     (0)  
O(0)          0.000e+00
   O2              0.000e+00   0.000e+00   -45.047   -45.044     0.002     (0)  
P             8.198e-05
   HPO4-2          3.366e-05   1.838e-05    -4.473    -4.736    -0.263     (0)  
   H2PO4-          2.784e-05   2.401e-05    -4.555    -4.620    -0.064     (0)  
   MgHPO4          1.132e-05   1.138e-05    -4.946    -4.944     0.002     (0)  
   CaHPO4          6.946e-06   6.986e-06    -5.158    -5.156     0.002     (0)  
   MgH2PO4+        7.538e-07   6.495e-07    -6.123    -6.187    -0.065     (0)  
   CaH2PO4+        4.913e-07   4.233e-07    -6.309    -6.373    -0.065     (0)  
   NaHPO4-         4.294e-07   3.700e-07    -6.367    -6.432    -0.065     (0)  
   MgPO4-          3.352e-07   2.889e-07    -6.475    -6.539    -0.065     (0)  
   CaPO4-          2.063e-07   1.777e-07    -6.686    -6.750    -0.065     (0)  
   PO4-3           3.435e-10   8.807e-11    -9.464   -10.055    -0.591     (0)  
   KHPO4-          4.639e-11   3.997e-11   -10.334   -10.398    -0.065     (0)  
   FerricH2PO4+2   2.390e-14   1.317e-14   -13.622   -13.880    -0.259     (0)  
   FerricHPO4+     8.354e-15   7.198e-15   -14.078   -14.143    -0.065     (0)  
Sulfate       3.805e-04
   SulfateO4-2     3.120e-04   1.743e-04    -3.506    -3.759    -0.253     (0)  
   MgSulfateO4     3.153e-05   3.171e-05    -4.501    -4.499     0.002     (0)  
   CaSulfateO4     2.639e-05   2.655e-05    -4.578    -4.576     0.002     (0)  
   NaSulfateO4-    9.798e-06   8.443e-06    -5.009    -5.074    -0.065     (0)  
   AmmH4SulfateO4-   7.595e-07   6.545e-07    -6.119    -6.184    -0.065     (0)  
   KSulfateO4-     1.323e-09   1.140e-09    -8.878    -8.943    -0.065     (0)  
   HSulfateO4-     1.221e-09   1.052e-09    -8.913    -8.978    -0.065     (0)  
   CaHSulfateO4+   1.235e-11   1.064e-11   -10.908   -10.973    -0.065     (0)  
   FerricSulfateO4+   3.596e-15   3.098e-15   -14.444   -14.509    -0.065     (0)  
   Ferric(SulfateO4)2-   1.317e-17   1.134e-17   -16.881   -16.945    -0.065     (0)  
   FerricHSulfateO4+2   1.175e-21   6.477e-22   -20.930   -21.189    -0.259     (0)  
Threonine     5.056e-04
   Threonine-2     5.056e-04   2.787e-04    -3.296    -3.555    -0.259     (0)  
   H(Threonine)-   3.496e-09   3.012e-09    -8.456    -8.521    -0.065     (0)  
   H2(Threonine)   2.139e-09   2.151e-09    -8.670    -8.667     0.002     (0)  
Tyrosine      5.056e-04
   Tyrosine-2      5.056e-04   2.787e-04    -3.296    -3.555    -0.259     (0)  
   H(Tyrosine)-    3.923e-09   3.380e-09    -8.406    -8.471    -0.065     (0)  
   H2(Tyrosine)    2.090e-09   2.102e-09    -8.680    -8.677     0.002     (0)  

------------------------------Saturation indices-------------------------------

  Phase               SI** log IAP   log K(288 K,   1 atm)

  FixpH            -7.12     -7.12    0.00  H+
  H2(g)           -22.23    -25.34   -3.11  H2
  H2O(g)           -1.78     -0.00    1.78  H2O
  Halite           -5.51     -3.96    1.56  NaCl
  Hydroxyapatite    1.38     -1.12   -2.50  Ca5(PO4)3OH
  redoxAnhydrite   -2.50     -6.83   -4.34  CaSulfateO4
  redoxAragonite   -3.52    -11.80   -8.28  CaCO3
  redoxCalcite     -3.37    -11.80   -8.43  CaCO3
  redoxCO2(g)      -4.77     -6.11   -1.34  CO2
  redoxDolomite    -6.67    -23.52  -16.85  CaMg(CO3)2
  redoxFe(OH)3(a)   1.77      6.66    4.89  Ferric(OH)3
  redoxGoethite     7.29      6.66   -0.63  FerricOOH
  redoxGypsum      -2.25     -6.83   -4.58  CaSulfateO4:2H2O
  redoxHematite    16.54     13.32   -3.22  Ferric2O3
  redoxJarosite-K  -6.43    -14.85   -8.41  KFerric3(SulfateO4)2(OH)6
  redoxNH3(g)      -7.96     -5.98    1.98  AmmH3

**For a gas, SI = log10(fugacity). Fugacity = pressure * phi / 1 atm.
  For ideal gases, phi = 1.

------------------
End of simulation.
------------------

------------------------------------
Reading input data for simulation 2.
------------------------------------

	 GAS_PHASE 1 
	  fixed_pressure  1.0
	  temperature 	 15
	  redoxCO2(g) 0.0
	  SAVE GAS_PHASE 1
	END
------------------
End of simulation.
------------------

------------------------------------
Reading input data for simulation 3.
------------------------------------

	USE SOLUTION 1
	USE GAS_PHASE 1
	EXCHANGE_MASTER_SPECIES
	  X  X-
	EXCHANGE_SPECIES
	 X- = X-
	 log_k 0     #semicolon is logical end of line
	 X- + AmmH4+ = AmmH4X
	  log_k  0.25   #define the half-reactions of ion change
	 2X- + Ca+2  = CaX2
	    log_k  0.4    $logK's relative 
	 2X- + Mg+2  = MgX2
	    log_k  0.5
	 X- + Na+  = NaX
	       log_k  0.0
	EXCHANGE 1   #exchanger in equilibirium 
	  X    0.1   #exchanger amount in mol
	  equilibrate with solution 1
	  exchange_gammas   true
	EQUILIBRIUM_PHASES 1
	  redoxFe(OH)3(a) 0.0 0.02
	SURFACE 1
	Hfo_wOH 2.4e-3  600 0.02
	Hfo_sOH 6e-6
	donnan 1e-12
	  H_a   3.837E-02  3.417E+04     100  ##gram of SOM for exchange
	  H_b   3.837E-02
	 H_c   3.837E-02
	 H_d  3.837E-02
	  H_e   1.919E-02
	 H_f   1.919E-02
	 H_g  1.919E-02
	 H_h  1.919E-02
	  H_ab  6.378E-02
	 H_ad  6.378E-02
	 H_af  6.378E-02
	 H_ah  6.378E-02
	  H_bc  6.378E-02
	 H_be  6.378E-02
	 H_bg  6.378E-05
	 H_cd  6.378E-05
	  H_cf  6.378E-02
	 H_ch  6.378E-02
	 H_de  6.378E-05
	 H_dg  6.378E-05
	  equilibrate 1
	REACTION 1
	CaSulfate    0.0001225  #each step 0.001 mol
	NaCl         0.0039828
	MgSulfate    0.0003431
	CaCl2        0.0001225
	KHCO3        0.0003676
	 15 in 15 steps
	SELECTED_OUTPUT
	reset false
	file vanD_peat_fluc_exch_c.txt
	USER_PUNCH
	start
	heading pH  Na  K  Ca  Mg  PO4  Cl  SO4 NH4 HCO3 sc
	10 PUNCH -la("H+")
	20 PUNCH tot("Na")  tot("K")  tot("Ca")  tot("Mg") tot("P")  tot("Cl")  tot("Sulfate") tot ("Amm")  tot("C(4)")
	30 PUNCH CALC_VALUE ("SC_T25")
	end
	END
-------------------------------------------------------
Beginning of initial exchange-composition calculations.
-------------------------------------------------------

Exchange 1.	

X                1.000e-01 mol

	                               Equiv-    Equivalent      Log 
	Species             Moles      alents      Fraction     Gamma

	MgX2              2.597e-02   5.194e-02   5.194e-01     0.000
	CaX2              1.712e-02   3.424e-02   3.424e-01     0.000
	NaX               1.314e-02   1.314e-02   1.314e-01     0.000
	AmmH4X            6.600e-04   6.600e-04   6.600e-03     0.000
	KX                8.812e-06   8.812e-06   8.812e-05    -0.067
	HX                1.104e-06   1.104e-06   1.104e-05    -0.054

------------------------------------------------------
Beginning of initial surface-composition calculations.
------------------------------------------------------

Surface 1.	

Diffuse Double Layer Surface-Complexation Model

H             
	 -1.030e-11  Surface + diffuse layer charge, eq
	 -7.491e-01  Surface charge, eq
	 -2.115e-02  sigma, C/m²
	 -4.835e-02  psi, V
	  1.947e+00  -F*psi/RT
	  7.011e+00  exp(-F*psi/RT)
	  3.417e+04  specific area, m²/g
	  3.417e+06  m² for   1.000e+02 g

	Water in diffuse layer: 3.417e-03 kg, 100.0% of total DDL-water.

	Total moles in diffuse layer (excluding water), Donnan calculation.
	Donnan Layer potential, psi_DL = -1.293e-01 V.
	Boltzmann factor, exp(-psi_DL * F / RT) = 1.825e+02 (= c_DL / c_free if z is +1).

	Element       	     Moles
	Alanine       	  9.3056e-11
	Amm           	  2.1371e-04
	C             	  5.9856e-08
	Ca            	  1.6939e-01
	Cl            	  2.3428e-07
	Cysteine      	  3.8590e-10
	Ferric        	  2.1814e-07
	Glutamine     	  5.9400e-11
	Glycine       	  1.6841e-08
	H             	  8.5702e-04
	K             	  8.1100e-07
	Mg            	  2.0132e-01
	Na            	  7.4564e-03
	O             	  4.7605e-06
	P             	  8.3959e-07
	Sulfate       	  1.9816e-07
	Threonine     	  5.9227e-11
	Tyrosine      	  5.9068e-11

H_a           
	  3.837e-02  moles
	                                   Mole                     Log
	Species               Moles    Fraction    Molality    Molality

	H_a-              3.829e-02       0.998   2.029e-02      -1.693
	H_aCa+            3.885e-05       0.001   2.059e-05      -4.686
	H_aMg+            3.718e-05       0.001   1.971e-05      -4.705
	H_aH              7.993e-07       0.000   4.236e-07      -6.373

H_ab          
	  6.378e-02  moles
	                                   Mole                     Log
	Species               Moles    Fraction    Molality    Molality

	H_ab-2            6.373e-02       0.999   3.377e-02      -1.471
	H_abCa            2.045e-05       0.000   1.084e-05      -4.965
	H_abH-            1.714e-05       0.000   9.081e-06      -5.042
	H_abMg            1.554e-05       0.000   8.237e-06      -5.084
	H_abH2            3.577e-10       0.000   1.895e-10      -9.722

H_ad          
	  6.378e-02  moles
	                                   Mole                     Log
	Species               Moles    Fraction    Molality    Molality

	H_ad-2            5.587e-02       0.876   2.961e-02      -1.529
	H_adCa            3.044e-03       0.048   1.613e-03      -2.792
	H_adH-            2.551e-03       0.040   1.352e-03      -2.869
	H_adMg            2.314e-03       0.036   1.226e-03      -2.911
	H_adH2            5.325e-08       0.000   2.822e-08      -7.549

H_af          
	  6.378e-02  moles
	                                   Mole                     Log
	Species               Moles    Fraction    Molality    Molality

	H_afH-            5.746e-02       0.901   3.045e-02      -1.516
	H_afCa            6.110e-03       0.096   3.238e-03      -2.490
	H_af-2            2.041e-04       0.003   1.081e-04      -3.966
	H_afMg            7.889e-06       0.000   4.181e-06      -5.379
	H_afH2            1.199e-06       0.000   6.355e-07      -6.197

H_ah          
	  6.378e-02  moles
	                                   Mole                     Log
	Species               Moles    Fraction    Molality    Molality

	H_ahH-            6.376e-02       1.000   3.379e-02      -1.471
	H_ahCa            1.206e-05       0.000   6.390e-06      -5.195
	H_ahMg            8.754e-06       0.000   4.639e-06      -5.334
	H_ahH2            1.331e-06       0.000   7.052e-07      -6.152
	H_ah-2            4.731e-08       0.000   2.507e-08      -7.601

H_b           
	  3.837e-02  moles
	                                   Mole                     Log
	Species               Moles    Fraction    Molality    Molality

	H_b-              3.740e-02       0.975   1.982e-02      -1.703
	H_bCa+            4.889e-04       0.013   2.591e-04      -3.587
	H_bMg+            4.679e-04       0.012   2.480e-04      -3.606
	H_bH              1.006e-05       0.000   5.330e-06      -5.273

H_bc          
	  6.378e-02  moles
	                                   Mole                     Log
	Species               Moles    Fraction    Molality    Molality

	H_bc-2            5.801e-02       0.910   3.074e-02      -1.512
	H_bcCa            3.161e-03       0.050   1.675e-03      -2.776
	H_bcMg            2.403e-03       0.038   1.273e-03      -2.895
	H_bcH-            2.056e-04       0.003   1.090e-04      -3.963
	H_bcH2            5.529e-08       0.000   2.930e-08      -7.533

H_be          
	  6.378e-02  moles
	                                   Mole                     Log
	Species               Moles    Fraction    Molality    Molality

	H_beH-            5.102e-02       0.800   2.704e-02      -1.568
	H_be-2            1.254e-02       0.197   6.643e-03      -2.178
	H_beCa            1.243e-04       0.002   6.587e-05      -4.181
	H_beMg            9.024e-05       0.001   4.782e-05      -4.320
	H_beH2            1.372e-05       0.000   7.270e-06      -5.138

H_bg          
	  6.378e-05  moles
	                                   Mole                     Log
	Species               Moles    Fraction    Molality    Molality

	H_bgH-            6.349e-05       0.995   3.365e-05      -4.473
	H_bgCa            1.547e-07       0.002   8.198e-08      -7.086
	H_bgMg            1.123e-07       0.002   5.951e-08      -7.225
	H_bgH2            1.707e-08       0.000   9.047e-09      -8.043
	H_bg-2            3.260e-09       0.000   1.727e-09      -8.763

H_c           
	  3.837e-02  moles
	                                   Mole                     Log
	Species               Moles    Fraction    Molality    Molality

	H_c-              2.862e-02       0.746   1.517e-02      -1.819
	H_cCa+            4.931e-03       0.129   2.613e-03      -2.583
	H_cMg+            4.719e-03       0.123   2.501e-03      -2.602
	H_cH              1.014e-04       0.003   5.376e-05      -4.270

H_cd          
	  6.378e-05  moles
	                                   Mole                     Log
	Species               Moles    Fraction    Molality    Molality

	H_cdCa            3.405e-05       0.534   1.804e-05      -4.744
	H_cdMg            2.588e-05       0.406   1.372e-05      -4.863
	H_cd-2            3.680e-06       0.058   1.950e-06      -5.710
	H_cdH-            1.680e-07       0.003   8.904e-08      -7.050
	H_cdH2            5.956e-10       0.000   3.156e-10      -9.501

H_cf          
	  6.378e-02  moles
	                                   Mole                     Log
	Species               Moles    Fraction    Molality    Molality

	H_cfH-            6.003e-02       0.941   3.181e-02      -1.497
	H_cfCa            1.928e-03       0.030   1.022e-03      -2.991
	H_cfMg            1.400e-03       0.022   7.417e-04      -3.130
	H_cf-2            2.132e-04       0.003   1.130e-04      -3.947
	H_cfH2            2.128e-04       0.003   1.128e-04      -3.948

H_ch          
	  6.378e-02  moles
	                                   Mole                     Log
	Species               Moles    Fraction    Molality    Molality

	H_chH-            6.023e-02       0.944   3.192e-02      -1.496
	H_chCa            1.934e-03       0.030   1.025e-03      -2.989
	H_chMg            1.404e-03       0.022   7.442e-04      -3.128
	H_chH2            2.135e-04       0.003   1.131e-04      -3.946
	H_ch-2            4.469e-08       0.000   2.368e-08      -7.626

H_d           
	  3.837e-02  moles
	                                   Mole                     Log
	Species               Moles    Fraction    Molality    Molality

	H_dCa+            1.580e-02       0.412   8.374e-03      -2.077
	H_dMg+            1.512e-02       0.394   8.015e-03      -2.096
	H_d-              7.119e-03       0.186   3.773e-03      -2.423
	H_dH              3.251e-04       0.008   1.723e-04      -3.764

H_de          
	  6.378e-05  moles
	                                   Mole                     Log
	Species               Moles    Fraction    Molality    Molality

	H_deH-            3.180e-05       0.499   1.685e-05      -4.773
	H_deCa            1.316e-05       0.206   6.973e-06      -5.157
	H_deMg            9.553e-06       0.150   5.062e-06      -5.296
	H_de-2            7.814e-06       0.123   4.141e-06      -5.383
	H_deH2            1.452e-06       0.023   7.696e-07      -6.114

H_dg          
	  6.378e-05  moles
	                                   Mole                     Log
	Species               Moles    Fraction    Molality    Molality

	H_dgH-            3.624e-05       0.568   1.921e-05      -4.717
	H_dgCa            1.499e-05       0.235   7.946e-06      -5.100
	H_dgMg            1.089e-05       0.171   5.769e-06      -5.239
	H_dgH2            1.655e-06       0.026   8.770e-07      -6.057
	H_dg-2            1.861e-09       0.000   9.860e-10      -9.006

H_e           
	  1.919e-02  moles
	                                   Mole                     Log
	Species               Moles    Fraction    Molality    Molality

	H_eH              1.522e-02       0.793   8.067e-03      -2.093
	H_e-              3.740e-03       0.195   1.982e-03      -2.703
	H_eCa+            1.200e-04       0.006   6.360e-05      -4.197
	H_eMg+            1.072e-04       0.006   5.680e-05      -4.246

H_f           
	  1.919e-02  moles
	                                   Mole                     Log
	Species               Moles    Fraction    Molality    Molality

	H_fH              1.884e-02       0.982   9.985e-03      -2.001
	H_fCa+            1.485e-04       0.008   7.872e-05      -4.104
	H_fMg+            1.327e-04       0.007   7.031e-05      -4.153
	H_f-              6.692e-05       0.003   3.546e-05      -4.450

H_g           
	  1.919e-02  moles
	                                   Mole                     Log
	Species               Moles    Fraction    Molality    Molality

	H_gH              1.891e-02       0.985   1.002e-02      -1.999
	H_gCa+            1.491e-04       0.008   7.899e-05      -4.102
	H_gMg+            1.331e-04       0.007   7.055e-05      -4.151
	H_g-              9.706e-07       0.000   5.144e-07      -6.289

H_h           
	  1.919e-02  moles
	                                   Mole                     Log
	Species               Moles    Fraction    Molality    Molality

	H_hH              1.891e-02       0.985   1.002e-02      -1.999
	H_hCa+            1.491e-04       0.008   7.900e-05      -4.102
	H_hMg+            1.331e-04       0.007   7.056e-05      -4.151
	H_h-              1.403e-08       0.000   7.435e-09      -8.129

Hfo           
	  1.784e-18  Surface + diffuse layer charge, eq
	 -1.271e-06  Surface charge, eq
	 -1.022e-02  sigma, C/m²
	 -2.603e-02  psi, V
	  1.048e+00  -F*psi/RT
	  2.853e+00  exp(-F*psi/RT)
	  6.000e+02  specific area, m²/g
	  1.200e+01  m² for   2.000e-02 g

	Water in diffuse layer: 1.200e-08 kg,  0.0% of total DDL-water.

	Total moles in diffuse layer (excluding water), Donnan calculation.
	Donnan Layer potential, psi_DL = -1.202e-01 V.
	Boltzmann factor, exp(-psi_DL * F / RT) = 1.266e+02 (= c_DL / c_free if z is +1).

	Element       	     Moles
	Alanine       	  5.2339e-16
	Amm           	  5.2055e-10
	C             	  1.4896e-13
	Ca            	  2.8617e-07
	Cl            	  1.1863e-12
	Cysteine      	  1.5517e-15
	Ferric        	  5.1778e-13
	Glutamine     	  4.0514e-16
	Glycine       	  6.5917e-14
	H             	  2.0876e-09
	K             	  1.9754e-12
	Mg            	  3.4012e-07
	Na            	  1.8162e-08
	O             	  1.2720e-11
	P             	  2.1136e-12
	Sulfate       	  6.9632e-13
	Threonine     	  4.0453e-16
	Tyrosine      	  4.0399e-16

Hfo_s         
	  6.000e-06  moles
	                                   Mole                     Log
	Species               Moles    Fraction    Molality    Molality

	Hfo_sOHCa+2       5.951e-06       0.992   3.154e-06      -5.501
	Hfo_sOH2+         3.966e-08       0.007   2.102e-08      -7.677
	Hfo_sOH           9.316e-09       0.002   4.937e-09      -8.307
	Hfo_sO-           5.014e-11       0.000   2.657e-11     -10.576

Hfo_w         
	  2.400e-03  moles
	                                   Mole                     Log
	Species               Moles    Fraction    Molality    Molality

	Hfo_wHPO4-        8.954e-04       0.373   4.745e-04      -3.324
	Hfo_wOH2+         8.585e-04       0.358   4.550e-04      -3.342
	Hfo_wOH           2.017e-04       0.084   1.069e-04      -3.971
	Hfo_wOMg+         1.914e-04       0.080   1.014e-04      -3.994
	Hfo_wH2PO4        1.553e-04       0.065   8.229e-05      -4.085
	Hfo_wPO4-2        8.769e-05       0.037   4.647e-05      -4.333
	Hfo_wOCa+         8.931e-06       0.004   4.733e-06      -5.325
	Hfo_wO-           1.085e-06       0.000   5.752e-07      -6.240
	Hfo_wSulfateO4-   5.684e-08       0.000   3.012e-08      -7.521
	Hfo_wOHSulfateO4-2   2.663e-08       0.000   1.411e-08      -7.850

-----------------------------------------
Beginning of batch-reaction calculations.
-----------------------------------------

Reaction step 1.

Using solution 1.	
Using exchange 1.	Exchange assemblage after simulation 3.
Using surface 1.	
Using pure phase assemblage 1.	
Using gas phase 1.	
Using reaction 1.	

Reaction 1.	

	  1.000e+00 moles of the following reaction have been added:

	                 Relative
	Reactant            moles

	CaCl2                0.00012
	CaSulfate            0.00012
	KHCO3                0.00037
	MgSulfate            0.00034
	NaCl                 0.00398

	                 Relative
	Element             moles
	C                    0.00037
	Ca                   0.00024
	Cl                   0.00423
	H                    0.00037
	K                    0.00037
	Mg                   0.00034
	Na                   0.00398
	O                    0.00110
	Sulfate              0.00047

----------------Fixed-pressure gas phase 1 dissolved completely----------------

-------------------------------Phase assemblage--------------------------------

                                                      Moles in assemblage
Phase               SI  log IAP  log K(T, P)   Initial       Final       Delta

redoxFe(OH)3(a)   -0.00     4.89      4.89    2.000e-02   2.000e-02   1.346e-06

------------------------------Surface composition------------------------------

Diffuse Double Layer Surface-Complexation Model

H             
	  2.099e-10  Surface + diffuse layer charge, eq
	 -7.523e-01  Surface charge, eq
	 -2.125e-02  sigma, C/m²
	 -4.607e-02  psi, V
	  1.855e+00  -F*psi/RT
	  6.394e+00  exp(-F*psi/RT)
	  3.417e+04  specific area, m²/g
	  3.417e+06  m² for   1.000e+02 g

	Water in diffuse layer: 3.417e-03 kg, 100.0% of total DDL-water.

	Total moles in diffuse layer (excluding water), Donnan calculation.
	Donnan Layer potential, psi_DL = -1.273e-01 V.
	Boltzmann factor, exp(-psi_DL * F / RT) = 1.687e+02 (= c_DL / c_free if z is +1).

	Element       	     Moles
	Alanine       	  1.0625e-10
	Amm           	  2.0659e-04
	C             	  2.3115e-06
	Ca            	  1.7019e-01
	Cl            	  2.9884e-07
	Cysteine      	  4.3006e-10
	Ferric        	  3.7264e-09
	Glutamine     	  6.9037e-11
	Glycine       	  1.8032e-08
	H             	  8.3707e-04
	K             	  2.4934e-05
	Mg            	  2.0195e-01
	Na            	  7.8085e-03
	O             	  1.1732e-05
	P             	  8.6531e-07
	Sulfate       	  3.5429e-07
	Threonine     	  6.8845e-11
	Tyrosine      	  6.8670e-11

H_a           
	  3.837e-02  moles
	                                   Mole                     Log
	Species               Moles    Fraction    Molality    Molality

	H_a-              3.830e-02       0.998   2.030e-02      -1.693
	H_aCa+            3.689e-05       0.001   1.955e-05      -4.709
	H_aMg+            3.530e-05       0.001   1.871e-05      -4.728
	H_aH              7.794e-07       0.000   4.130e-07      -6.384

H_ab          
	  6.378e-02  moles
	                                   Mole                     Log
	Species               Moles    Fraction    Molality    Molality

	H_ab-2            6.373e-02       0.999   3.377e-02      -1.471
	H_abCa            1.941e-05       0.000   1.029e-05      -4.988
	H_abH-            1.671e-05       0.000   8.854e-06      -5.053
	H_abMg            1.476e-05       0.000   7.820e-06      -5.107
	H_abH2            3.400e-10       0.000   1.802e-10      -9.744

H_ad          
	  6.378e-02  moles
	                                   Mole                     Log
	Species               Moles    Fraction    Molality    Molality

	H_ad-2            5.617e-02       0.881   2.977e-02      -1.526
	H_adCa            2.905e-03       0.046   1.540e-03      -2.813
	H_adH-            2.501e-03       0.039   1.325e-03      -2.878
	H_adMg            2.208e-03       0.035   1.170e-03      -2.932
	H_adH2            5.089e-08       0.000   2.697e-08      -7.569

H_af          
	  6.378e-02  moles
	                                   Mole                     Log
	Species               Moles    Fraction    Molality    Molality

	H_afH-            5.760e-02       0.903   3.052e-02      -1.515
	H_afCa            5.964e-03       0.094   3.161e-03      -2.500
	H_af-2            2.098e-04       0.003   1.112e-04      -3.954
	H_afMg            7.699e-06       0.000   4.080e-06      -5.389
	H_afH2            1.172e-06       0.000   6.212e-07      -6.207

H_ah          
	  6.378e-02  moles
	                                   Mole                     Log
	Species               Moles    Fraction    Molality    Molality

	H_ahH-            6.376e-02       1.000   3.379e-02      -1.471
	H_ahCa            1.174e-05       0.000   6.222e-06      -5.206
	H_ahMg            8.523e-06       0.000   4.517e-06      -5.345
	H_ahH2            1.297e-06       0.000   6.876e-07      -6.163
	H_ah-2            4.853e-08       0.000   2.572e-08      -7.590

H_b           
	  3.837e-02  moles
	                                   Mole                     Log
	Species               Moles    Fraction    Molality    Molality

	H_b-              3.745e-02       0.976   1.985e-02      -1.702
	H_bCa+            4.647e-04       0.012   2.463e-04      -3.609
	H_bMg+            4.447e-04       0.012   2.357e-04      -3.628
	H_bH              9.818e-06       0.000   5.203e-06      -5.284

H_bc          
	  6.378e-02  moles
	                                   Mole                     Log
	Species               Moles    Fraction    Molality    Molality

	H_bc-2            5.827e-02       0.914   3.088e-02      -1.510
	H_bcCa            3.014e-03       0.047   1.597e-03      -2.797
	H_bcMg            2.291e-03       0.036   1.214e-03      -2.916
	H_bcH-            2.014e-04       0.003   1.067e-04      -3.972
	H_bcH2            5.280e-08       0.000   2.798e-08      -7.553

H_be          
	  6.378e-02  moles
	                                   Mole                     Log
	Species               Moles    Fraction    Molality    Molality

	H_beH-            5.077e-02       0.796   2.690e-02      -1.570
	H_be-2            1.279e-02       0.201   6.780e-03      -2.169
	H_beCa            1.204e-04       0.002   6.382e-05      -4.195
	H_beMg            8.742e-05       0.001   4.633e-05      -4.334
	H_beH2            1.331e-05       0.000   7.053e-06      -5.152

H_bg          
	  6.378e-05  moles
	                                   Mole                     Log
	Species               Moles    Fraction    Molality    Molality

	H_bgH-            6.350e-05       0.996   3.365e-05      -4.473
	H_bgCa            1.506e-07       0.002   7.983e-08      -7.098
	H_bgMg            1.094e-07       0.002   5.795e-08      -7.237
	H_bgH2            1.665e-08       0.000   8.822e-09      -8.054
	H_bg-2            3.344e-09       0.000   1.772e-09      -8.752

H_c           
	  3.837e-02  moles
	                                   Mole                     Log
	Species               Moles    Fraction    Molality    Molality

	H_c-              2.899e-02       0.756   1.536e-02      -1.814
	H_cCa+            4.742e-03       0.124   2.513e-03      -2.600
	H_cMg+            4.538e-03       0.118   2.405e-03      -2.619
	H_cH              1.002e-04       0.003   5.309e-05      -4.275

H_cd          
	  6.378e-05  moles
	                                   Mole                     Log
	Species               Moles    Fraction    Molality    Molality

	H_cdCa            3.394e-05       0.532   1.799e-05      -4.745
	H_cdMg            2.580e-05       0.405   1.367e-05      -4.864
	H_cd-2            3.864e-06       0.061   2.048e-06      -5.689
	H_cdH-            1.720e-07       0.003   9.117e-08      -7.040
	H_cdH2            5.945e-10       0.000   3.151e-10      -9.502

H_cf          
	  6.378e-02  moles
	                                   Mole                     Log
	Species               Moles    Fraction    Molality    Molality

	H_cfH-            6.011e-02       0.942   3.185e-02      -1.497
	H_cfCa            1.880e-03       0.029   9.961e-04      -3.002
	H_cfMg            1.365e-03       0.021   7.232e-04      -3.141
	H_cf-2            2.190e-04       0.003   1.160e-04      -3.935
	H_cfH2            2.077e-04       0.003   1.101e-04      -3.958

H_ch          
	  6.378e-02  moles
	                                   Mole                     Log
	Species               Moles    Fraction    Molality    Molality

	H_chH-            6.032e-02       0.946   3.196e-02      -1.495
	H_chCa            1.886e-03       0.030   9.995e-04      -3.000
	H_chMg            1.369e-03       0.021   7.256e-04      -3.139
	H_chH2            2.085e-04       0.003   1.105e-04      -3.957
	H_ch-2            4.591e-08       0.000   2.433e-08      -7.614

H_d           
	  3.837e-02  moles
	                                   Mole                     Log
	Species               Moles    Fraction    Molality    Molality

	H_dCa+            1.564e-02       0.408   8.290e-03      -2.081
	H_dMg+            1.497e-02       0.390   7.934e-03      -2.100
	H_d-              7.424e-03       0.193   3.934e-03      -2.405
	H_dH              3.305e-04       0.009   1.752e-04      -3.757

H_de          
	  6.378e-05  moles
	                                   Mole                     Log
	Species               Moles    Fraction    Molality    Molality

	H_deH-            3.202e-05       0.502   1.697e-05      -4.770
	H_deCa            1.290e-05       0.202   6.836e-06      -5.165
	H_deMg            9.365e-06       0.147   4.963e-06      -5.304
	H_de-2            8.070e-06       0.127   4.277e-06      -5.369
	H_deH2            1.426e-06       0.022   7.555e-07      -6.122

H_dg          
	  6.378e-05  moles
	                                   Mole                     Log
	Species               Moles    Fraction    Molality    Molality

	H_dgH-            3.666e-05       0.575   1.943e-05      -4.712
	H_dgCa            1.477e-05       0.232   7.826e-06      -5.106
	H_dgMg            1.072e-05       0.168   5.681e-06      -5.246
	H_dgH2            1.632e-06       0.026   8.649e-07      -6.063
	H_dg-2            1.930e-09       0.000   1.023e-09      -8.990

H_e           
	  1.919e-02  moles
	                                   Mole                     Log
	Species               Moles    Fraction    Molality    Molality

	H_eH              1.515e-02       0.790   8.029e-03      -2.095
	H_e-              3.818e-03       0.199   2.024e-03      -2.694
	H_eCa+            1.163e-04       0.006   6.163e-05      -4.210
	H_eMg+            1.039e-04       0.005   5.505e-05      -4.259

H_f           
	  1.919e-02  moles
	                                   Mole                     Log
	Species               Moles    Fraction    Molality    Molality

	H_fH              1.885e-02       0.982   9.988e-03      -2.001
	H_fCa+            1.447e-04       0.008   7.667e-05      -4.115
	H_fMg+            1.292e-04       0.007   6.848e-05      -4.164
	H_f-              6.866e-05       0.004   3.638e-05      -4.439

H_g           
	  1.919e-02  moles
	                                   Mole                     Log
	Species               Moles    Fraction    Molality    Molality

	H_gH              1.891e-02       0.986   1.002e-02      -1.999
	H_gCa+            1.452e-04       0.008   7.694e-05      -4.114
	H_gMg+            1.297e-04       0.007   6.872e-05      -4.163
	H_g-              9.959e-07       0.000   5.278e-07      -6.278

H_h           
	  1.919e-02  moles
	                                   Mole                     Log
	Species               Moles    Fraction    Molality    Molality

	H_hH              1.892e-02       0.986   1.002e-02      -1.999
	H_hCa+            1.452e-04       0.008   7.694e-05      -4.114
	H_hMg+            1.297e-04       0.007   6.872e-05      -4.163
	H_h-              1.440e-08       0.000   7.629e-09      -8.118

Hfo           
	  3.625e-16  Surface + diffuse layer charge, eq
	 -1.288e-06  Surface charge, eq
	 -1.036e-02  sigma, C/m²
	 -2.478e-02  psi, V
	  9.980e-01  -F*psi/RT
	  2.713e+00  exp(-F*psi/RT)
	  6.000e+02  specific area, m²/g
	  1.200e+01  m² for   2.000e-02 g

	Water in diffuse layer: 1.200e-08 kg,  0.0% of total DDL-water.

	Total moles in diffuse layer (excluding water), Donnan calculation.
	Donnan Layer potential, psi_DL = -1.184e-01 V.
	Boltzmann factor, exp(-psi_DL * F / RT) = 1.175e+02 (= c_DL / c_free if z is +1).

	Element       	     Moles
	Alanine       	  5.9939e-16
	Amm           	  5.0542e-10
	C             	  5.7769e-12
	Ca            	  2.9004e-07
	Cl            	  1.5065e-12
	Cysteine      	  1.7364e-15
	Ferric        	  8.8840e-15
	Glutamine     	  4.6864e-16
	Glycine       	  7.0713e-14
	H             	  2.0551e-09
	K             	  6.0999e-11
	Mg            	  3.4417e-07
	Na            	  1.9103e-08
	O             	  3.0752e-11
	P             	  2.1871e-12
	Sulfate       	  1.2450e-12
	Threonine     	  4.6796e-16
	Tyrosine      	  4.6736e-16

Hfo_s         
	  6.000e-06  moles
	                                   Mole                     Log
	Species               Moles    Fraction    Molality    Molality

	Hfo_sOHCa+2       5.952e-06       0.992   3.154e-06      -5.501
	Hfo_sOH2+         3.907e-08       0.007   2.071e-08      -7.684
	Hfo_sOH           9.029e-09       0.002   4.785e-09      -8.320
	Hfo_sO-           4.780e-11       0.000   2.533e-11     -10.596

Hfo_w         
	  2.400e-03  moles
	                                   Mole                     Log
	Species               Moles    Fraction    Molality    Molality

	Hfo_wHPO4-        8.974e-04       0.374   4.756e-04      -3.323
	Hfo_wOH2+         8.584e-04       0.358   4.549e-04      -3.342
	Hfo_wOH           1.984e-04       0.083   1.051e-04      -3.978
	Hfo_wOMg+         1.911e-04       0.080   1.013e-04      -3.995
	Hfo_wH2PO4        1.582e-04       0.066   8.384e-05      -4.077
	Hfo_wPO4-2        8.645e-05       0.036   4.581e-05      -4.339
	Hfo_wOCa+         8.917e-06       0.004   4.726e-06      -5.326
	Hfo_wO-           1.050e-06       0.000   5.565e-07      -6.255
	Hfo_wSulfateO4-   9.853e-08       0.000   5.222e-08      -7.282
	Hfo_wOHSulfateO4-2   4.540e-08       0.000   2.406e-08      -7.619

-----------------------------Exchange composition------------------------------

X                1.000e-01 mol

	                               Equiv-    Equivalent      Log 
	Species             Moles      alents      Fraction     Gamma

	MgX2              2.571e-02   5.143e-02   5.143e-01    -0.000
	CaX2              1.695e-02   3.390e-02   3.390e-01    -0.000
	NaX               1.376e-02   1.376e-02   1.376e-01    -0.000
	AmmH4X            6.367e-04   6.367e-04   6.367e-03    -0.000
	KX                2.730e-04   2.730e-04   2.730e-03    -0.071
	HX                1.105e-06   1.105e-06   1.105e-05    -0.057

-----------------------------Solution composition------------------------------

	Elements           Molality       Moles

	Alanine           5.056e-04   9.541e-04
	Amm               3.606e-04   6.804e-04
	C                 1.990e-04   3.755e-04
	Ca                1.806e-03   3.409e-03
	Cl                1.476e-02   2.784e-02
	Cysteine          5.056e-04   9.541e-04
	Ferric            1.088e-08   2.053e-08
	Glutamine         5.056e-04   9.541e-04
	Glycine           5.056e-04   9.541e-04
	K                 4.332e-05   8.174e-05
	Mg                2.148e-03   4.052e-03
	Na                1.356e-02   2.559e-02
	P                 8.000e-05   1.510e-04
	Sulfate           6.271e-04   1.183e-03
	Threonine         5.056e-04   9.541e-04
	Tyrosine          5.056e-04   9.541e-04

----------------------------Description of solution----------------------------

                                       pH  =   7.087      Charge balance
                                       pe  =  -7.138      Adjusted to redox equilibrium
      Specific Conductance (µS/cm,  15°C)  = 1613
                        Activity of water  =   0.999
                 Ionic strength (mol/kgw)  =   2.849e-02
                       Mass of water (kg)  =   1.887e+00
                 Total alkalinity (eq/kg)  =   3.256e-03
                       Total CO2 (mol/kg)  =   1.990e-04
                         Temperature (°C)  =  15.00
                  Electrical balance (eq)  =  -1.030e-11
 Percent error, 100*(Cat-|An|)/(Cat+|An|)  =  -0.00
                               Iterations  =   1
                                  Total H  = 2.094838e+02
                                  Total O  = 1.047448e+02

----------------------------Distribution of species----------------------------

                                               Log       Log       Log    mole V
   Species          Molality    Activity  Molality  Activity     Gamma   cm³/mol

   H+              9.319e-08   8.181e-08    -7.031    -7.087    -0.057      0.00
   OH-             6.484e-08   5.507e-08    -7.188    -7.259    -0.071     (0)  
   H2O             5.551e+01   9.994e-01     1.744    -0.000     0.000     18.03
Alanine       5.056e-04
   Alanine-2       5.056e-04   2.699e-04    -3.296    -3.569    -0.273     (0)  
   H2(Alanine)     1.330e-08   1.339e-08    -7.876    -7.873     0.003     (0)  
   H(Alanine)-     5.782e-09   4.942e-09    -8.238    -8.306    -0.068     (0)  
Amm           3.606e-04
   AmmH4+          3.583e-04   3.019e-04    -3.446    -3.520    -0.074     (0)  
   AmmH4SulfateO4-   1.243e-06   1.063e-06    -5.905    -5.974    -0.068     (0)  
   AmmH3           1.005e-06   1.012e-06    -5.998    -5.995     0.003     (0)  
C(4)          1.990e-04
   HCO3-           1.639e-04   1.410e-04    -3.785    -3.851    -0.065     (0)  
   CO2             3.008e-05   3.028e-05    -4.522    -4.519     0.003     (0)  
   MgHCO3+         2.158e-06   1.845e-06    -5.666    -5.734    -0.068     (0)  
   CaHCO3+         1.661e-06   1.429e-06    -5.780    -5.845    -0.065     (0)  
   NaHCO3          9.141e-07   9.201e-07    -6.039    -6.036     0.003     (0)  
   CO3-2           1.172e-07   6.429e-08    -6.931    -7.192    -0.261     (0)  
   CaCO3           8.765e-08   8.823e-08    -7.057    -7.054     0.003     (0)  
   MgCO3           6.044e-08   6.083e-08    -7.219    -7.216     0.003     (0)  
   NaCO3-          9.641e-09   8.241e-09    -8.016    -8.084    -0.068     (0)  
Ca            1.806e-03
   Ca+2            1.750e-03   9.597e-04    -2.757    -3.018    -0.261     (0)  
   CaSulfateO4     4.719e-05   4.750e-05    -4.326    -4.323     0.003     (0)  
   CaHPO4          7.179e-06   7.227e-06    -5.144    -5.141     0.003     (0)  
   CaHCO3+         1.661e-06   1.429e-06    -5.780    -5.845    -0.065     (0)  
   CaH2PO4+        5.477e-07   4.681e-07    -6.261    -6.330    -0.068     (0)  
   CaPO4-          2.012e-07   1.720e-07    -6.696    -6.765    -0.068     (0)  
   CaCO3           8.765e-08   8.823e-08    -7.057    -7.054     0.003     (0)  
   CaOH+           2.276e-09   1.946e-09    -8.643    -8.711    -0.068     (0)  
   CaHSulfateO4+   2.380e-11   2.035e-11   -10.623   -10.692    -0.068     (0)  
Cl            1.476e-02
   Cl-             1.476e-02   1.254e-02    -1.831    -1.902    -0.071     (0)  
   FerricCl+2      2.182e-17   1.165e-17   -16.661   -16.934    -0.273     (0)  
   FerricCl2+      1.060e-18   9.058e-19   -17.975   -18.043    -0.068     (0)  
   FerricCl3       1.129e-21   1.136e-21   -20.947   -20.945     0.003     (0)  
Cysteine      5.056e-04
   Cysteine-2      5.055e-04   2.698e-04    -3.296    -3.569    -0.273     (0)  
   H2(Cysteine)    1.081e-07   1.088e-07    -6.966    -6.963     0.003     (0)  
   H(Cysteine)-    1.324e-09   1.132e-09    -8.878    -8.946    -0.068     (0)  
Ferric        1.088e-08
   Ferric(OH)2+    5.851e-09   5.001e-09    -8.233    -8.301    -0.068     (0)  
   Ferric(OH)3     4.981e-09   5.014e-09    -8.303    -8.300     0.003     (0)  
   Ferric(OH)4-    4.312e-11   3.685e-11   -10.365   -10.434    -0.068     (0)  
   FerricOH+2      3.430e-12   1.831e-12   -11.465   -11.737    -0.273     (0)  
   FerricH2PO4+2   5.007e-16   2.672e-16   -15.300   -15.573    -0.273     (0)  
   FerricHPO4+     1.598e-16   1.366e-16   -15.796   -15.865    -0.068     (0)  
   Ferric+3        1.379e-16   4.268e-17   -15.861   -16.370    -0.509     (0)  
   FerricSulfateO4+   1.190e-16   1.017e-16   -15.925   -15.993    -0.068     (0)  
   FerricCl+2      2.182e-17   1.165e-17   -16.661   -16.934    -0.273     (0)  
   FerricCl2+      1.060e-18   9.058e-19   -17.975   -18.043    -0.068     (0)  
   Ferric(SulfateO4)2-   6.830e-19   5.837e-19   -18.166   -18.234    -0.068     (0)  
   Ferric2(OH)2+4   1.704e-21   1.383e-22   -20.768   -21.859    -1.091     (0)  
   FerricCl3       1.129e-21   1.136e-21   -20.947   -20.945     0.003     (0)  
   FerricHSulfateO4+2   4.258e-23   2.273e-23   -22.371   -22.643    -0.273     (0)  
   Ferric3(OH)4+5   1.900e-26   3.755e-28   -25.721   -27.425    -1.704     (0)  
Glutamine     5.056e-04
   Glutamine-2     5.056e-04   2.699e-04    -3.296    -3.569    -0.273     (0)  
   H(Glutamine)-   3.820e-09   3.266e-09    -8.418    -8.486    -0.068     (0)  
   H2(Glutamine)   2.420e-09   2.436e-09    -8.616    -8.613     0.003     (0)  
Glycine       5.056e-04
   Glycine-        5.056e-04   4.322e-04    -3.296    -3.364    -0.068     (0)  
   H2(Glycine)+    1.347e-08   1.151e-08    -7.871    -7.939    -0.068     (0)  
   H(Glycine)      7.684e-09   7.735e-09    -8.114    -8.112     0.003     (0)  
H(0)          1.970e-03
   H2              9.852e-04   9.917e-04    -3.006    -3.004     0.003     (0)  
K             4.332e-05
   K+              4.325e-05   3.676e-05    -4.364    -4.435    -0.071     (0)  
   KSulfateO4-     6.893e-08   5.892e-08    -7.162    -7.230    -0.068     (0)  
   KHPO4-          1.397e-09   1.194e-09    -8.855    -8.923    -0.068     (0)  
   KOH             1.547e-12   1.557e-12   -11.810   -11.808     0.003     (0)  
Mg            2.148e-03
   Mg+2            2.076e-03   1.156e-03    -2.683    -2.937    -0.254     (0)  
   MgSulfateO4     5.636e-05   5.673e-05    -4.249    -4.246     0.003     (0)  
   MgHPO4          1.170e-05   1.177e-05    -4.932    -4.929     0.003     (0)  
   MgHCO3+         2.158e-06   1.845e-06    -5.666    -5.734    -0.068     (0)  
   MgH2PO4+        8.403e-07   7.183e-07    -6.076    -6.144    -0.068     (0)  
   MgPO4-          3.270e-07   2.795e-07    -6.485    -6.554    -0.068     (0)  
   MgCO3           6.044e-08   6.083e-08    -7.219    -7.216     0.003     (0)  
   MgOH+           2.357e-08   2.015e-08    -7.628    -7.696    -0.068     (0)  
Na            1.356e-02
   Na+             1.354e-02   1.160e-02    -1.868    -1.935    -0.067     (0)  
   NaSulfateO4-    1.741e-05   1.488e-05    -4.759    -4.827    -0.068     (0)  
   NaHCO3          9.141e-07   9.201e-07    -6.039    -6.036     0.003     (0)  
   NaHPO4-         4.410e-07   3.769e-07    -6.356    -6.424    -0.068     (0)  
   NaCO3-          9.641e-09   8.241e-09    -8.016    -8.084    -0.068     (0)  
   NaOH            9.302e-10   9.363e-10    -9.031    -9.029     0.003     (0)  
O(0)          0.000e+00
   O2              0.000e+00   0.000e+00   -89.715   -89.713     0.003     (0)  
P             8.000e-05
   HPO4-2          3.157e-05   1.666e-05    -4.501    -4.778    -0.277     (0)  
   H2PO4-          2.720e-05   2.327e-05    -4.565    -4.633    -0.068     (0)  
   MgHPO4          1.170e-05   1.177e-05    -4.932    -4.929     0.003     (0)  
   CaHPO4          7.179e-06   7.227e-06    -5.144    -5.141     0.003     (0)  
   MgH2PO4+        8.403e-07   7.183e-07    -6.076    -6.144    -0.068     (0)  
   CaH2PO4+        5.477e-07   4.681e-07    -6.261    -6.330    -0.068     (0)  
   NaHPO4-         4.410e-07   3.769e-07    -6.356    -6.424    -0.068     (0)  
   MgPO4-          3.270e-07   2.795e-07    -6.485    -6.554    -0.068     (0)  
   CaPO4-          2.012e-07   1.720e-07    -6.696    -6.765    -0.068     (0)  
   KHPO4-          1.397e-09   1.194e-09    -8.855    -8.923    -0.068     (0)  
   PO4-3           3.144e-10   7.467e-11    -9.502   -10.127    -0.624     (0)  
   FerricH2PO4+2   5.007e-16   2.672e-16   -15.300   -15.573    -0.273     (0)  
   FerricHPO4+     1.598e-16   1.366e-16   -15.796   -15.865    -0.068     (0)  
Sulfate       6.271e-04
   SulfateO4-2     5.048e-04   2.732e-04    -3.297    -3.563    -0.267     (0)  
   MgSulfateO4     5.636e-05   5.673e-05    -4.249    -4.246     0.003     (0)  
   CaSulfateO4     4.719e-05   4.750e-05    -4.326    -4.323     0.003     (0)  
   NaSulfateO4-    1.741e-05   1.488e-05    -4.759    -4.827    -0.068     (0)  
   AmmH4SulfateO4-   1.243e-06   1.063e-06    -5.905    -5.974    -0.068     (0)  
   KSulfateO4-     6.893e-08   5.892e-08    -7.162    -7.230    -0.068     (0)  
   HSulfateO4-     2.063e-09   1.763e-09    -8.685    -8.754    -0.068     (0)  
   CaHSulfateO4+   2.380e-11   2.035e-11   -10.623   -10.692    -0.068     (0)  
   FerricSulfateO4+   1.190e-16   1.017e-16   -15.925   -15.993    -0.068     (0)  
   Ferric(SulfateO4)2-   6.830e-19   5.837e-19   -18.166   -18.234    -0.068     (0)  
   FerricHSulfateO4+2   4.258e-23   2.273e-23   -22.371   -22.643    -0.273     (0)  
Threonine     5.056e-04
   Threonine-2     5.056e-04   2.699e-04    -3.296    -3.569    -0.273     (0)  
   H(Threonine)-   3.649e-09   3.119e-09    -8.438    -8.506    -0.068     (0)  
   H2(Threonine)   2.365e-09   2.381e-09    -8.626    -8.623     0.003     (0)  
Tyrosine      5.056e-04
   Tyrosine-2      5.056e-04   2.699e-04    -3.296    -3.569    -0.273     (0)  
   H(Tyrosine)-    4.094e-09   3.499e-09    -8.388    -8.456    -0.068     (0)  
   H2(Tyrosine)    2.311e-09   2.327e-09    -8.636    -8.633     0.003     (0)  

------------------------------Saturation indices-------------------------------

  Phase               SI** log IAP   log K(288 K,   1 atm)

  FixpH            -7.09     -7.09    0.00  H+
  H2(g)             0.10     -3.00   -3.11  H2
  H2O(g)           -1.78     -0.00    1.78  H2O
  Halite           -5.40     -3.84    1.56  NaCl
  Hydroxyapatite    1.43     -1.08   -2.50  Ca5(PO4)3OH
  redoxAnhydrite   -2.25     -6.58   -4.34  CaSulfateO4
  redoxAragonite   -1.93    -10.21   -8.28  CaCO3
  redoxCalcite     -1.78    -10.21   -8.43  CaCO3
  redoxCO2(g)      -3.18     -4.52   -1.34  CO2
  redoxDolomite    -3.49    -20.34  -16.85  CaMg(CO3)2
  redoxFe(OH)3(a)  -0.00      4.89    4.89  Ferric(OH)3
  redoxGoethite     5.52      4.89   -0.63  FerricOOH
  redoxGypsum      -2.00     -6.58   -4.58  CaSulfateO4:2H2O
  redoxHematite    13.01      9.78   -3.22  Ferric2O3
  redoxJarosite-K  -9.74    -18.15   -8.41  KFerric3(SulfateO4)2(OH)6
  redoxNH3(g)      -7.97     -5.99    1.98  AmmH3

**For a gas, SI = log10(fugacity). Fugacity = pressure * phi / 1 atm.
  For ideal gases, phi = 1.

Reaction step 2.

Using solution 1.	
Using exchange 1.	Exchange assemblage after simulation 3.
Using surface 1.	
Using pure phase assemblage 1.	
Using gas phase 1.	
Using reaction 1.	

Reaction 1.	

	  2.000e+00 moles of the following reaction have been added:

	                 Relative
	Reactant            moles

	CaCl2                0.00012
	CaSulfate            0.00012
	KHCO3                0.00037
	MgSulfate            0.00034
	NaCl                 0.00398

	                 Relative
	Element             moles
	C                    0.00037
	Ca                   0.00024
	Cl                   0.00423
	H                    0.00037
	K                    0.00037
	Mg                   0.00034
	Na                   0.00398
	O                    0.00110
	Sulfate              0.00047

----------------Fixed-pressure gas phase 1 dissolved completely----------------

-------------------------------Phase assemblage--------------------------------

                                                      Moles in assemblage
Phase               SI  log IAP  log K(T, P)   Initial       Final       Delta

redoxFe(OH)3(a)    0.00     4.89      4.89    2.000e-02   2.000e-02   1.346e-06

------------------------------Surface composition------------------------------

Diffuse Double Layer Surface-Complexation Model

H             
	 -5.662e-09  Surface + diffuse layer charge, eq
	 -7.552e-01  Surface charge, eq
	 -2.133e-02  sigma, C/m²
	 -4.412e-02  psi, V
	  1.777e+00  -F*psi/RT
	  5.911e+00  exp(-F*psi/RT)
	  3.417e+04  specific area, m²/g
	  3.417e+06  m² for   1.000e+02 g

	Water in diffuse layer: 3.417e-03 kg, 100.0% of total DDL-water.

	Total moles in diffuse layer (excluding water), Donnan calculation.
	Donnan Layer potential, psi_DL = -1.257e-01 V.
	Boltzmann factor, exp(-psi_DL * F / RT) = 1.578e+02 (= c_DL / c_free if z is +1).

	Element       	     Moles
	Alanine       	  1.1882e-10
	Amm           	  2.0053e-04
	C             	  4.7185e-06
	Ca            	  1.7088e-01
	Cl            	  3.6799e-07
	Cysteine      	  4.7030e-10
	Ferric        	  3.7173e-09
	Glutamine     	  7.8427e-11
	Glycine       	  1.9099e-08
	H             	  8.2189e-04
	K             	  4.8130e-05
	Mg            	  2.0250e-01
	Na            	  8.1614e-03
	O             	  1.9616e-05
	P             	  8.8569e-07
	Sulfate       	  5.2672e-07
	Threonine     	  7.8218e-11
	Tyrosine      	  7.8029e-11

H_a           
	  3.837e-02  moles
	                                   Mole                     Log
	Species               Moles    Fraction    Molality    Molality

	H_a-              3.830e-02       0.998   2.030e-02      -1.693
	H_aCa+            3.521e-05       0.001   1.866e-05      -4.729
	H_aMg+            3.371e-05       0.001   1.786e-05      -4.748
	H_aH              7.620e-07       0.000   4.038e-07      -6.394

H_ab          
	  6.378e-02  moles
	                                   Mole                     Log
	Species               Moles    Fraction    Molality    Molality

	H_ab-2            6.373e-02       0.999   3.377e-02      -1.471
	H_abCa            1.853e-05       0.000   9.820e-06      -5.008
	H_abH-            1.633e-05       0.000   8.657e-06      -5.063
	H_abMg            1.409e-05       0.000   7.466e-06      -5.127
	H_abH2            3.250e-10       0.000   1.722e-10      -9.764

H_ad          
	  6.378e-02  moles
	                                   Mole                     Log
	Species               Moles    Fraction    Molality    Molality

	H_ad-2            5.642e-02       0.885   2.990e-02      -1.524
	H_adCa            2.786e-03       0.044   1.476e-03      -2.831
	H_adH-            2.456e-03       0.039   1.301e-03      -2.886
	H_adMg            2.118e-03       0.033   1.122e-03      -2.950
	H_adH2            4.886e-08       0.000   2.589e-08      -7.587

H_af          
	  6.378e-02  moles
	                                   Mole                     Log
	Species               Moles    Fraction    Molality    Molality

	H_afH-            5.772e-02       0.905   3.059e-02      -1.514
	H_afCa            5.836e-03       0.091   3.093e-03      -2.510
	H_af-2            2.151e-04       0.003   1.140e-04      -3.943
	H_afMg            7.535e-06       0.000   3.993e-06      -5.399
	H_afH2            1.148e-06       0.000   6.086e-07      -6.216

H_ah          
	  6.378e-02  moles
	                                   Mole                     Log
	Species               Moles    Fraction    Molality    Molality

	H_ahH-            6.376e-02       1.000   3.379e-02      -1.471
	H_ahCa            1.146e-05       0.000   6.075e-06      -5.216
	H_ahMg            8.323e-06       0.000   4.411e-06      -5.355
	H_ahH2            1.269e-06       0.000   6.723e-07      -6.172
	H_ah-2            4.963e-08       0.000   2.630e-08      -7.580

H_b           
	  3.837e-02  moles
	                                   Mole                     Log
	Species               Moles    Fraction    Molality    Molality

	H_b-              3.749e-02       0.977   1.987e-02      -1.702
	H_bCa+            4.441e-04       0.012   2.353e-04      -3.628
	H_bMg+            4.250e-04       0.011   2.253e-04      -3.647
	H_bH              9.609e-06       0.000   5.093e-06      -5.293

H_bc          
	  6.378e-02  moles
	                                   Mole                     Log
	Species               Moles    Fraction    Molality    Molality

	H_bc-2            5.850e-02       0.917   3.100e-02      -1.509
	H_bcCa            2.888e-03       0.045   1.531e-03      -2.815
	H_bcMg            2.196e-03       0.034   1.164e-03      -2.934
	H_bcH-            1.977e-04       0.003   1.047e-04      -3.980
	H_bcH2            5.066e-08       0.000   2.685e-08      -7.571

H_be          
	  6.378e-02  moles
	                                   Mole                     Log
	Species               Moles    Fraction    Molality    Molality

	H_beH-            5.054e-02       0.792   2.678e-02      -1.572
	H_be-2            1.303e-02       0.204   6.904e-03      -2.161
	H_beCa            1.170e-04       0.002   6.203e-05      -4.207
	H_beMg            8.499e-05       0.001   4.504e-05      -4.346
	H_beH2            1.295e-05       0.000   6.865e-06      -5.163

H_bg          
	  6.378e-05  moles
	                                   Mole                     Log
	Species               Moles    Fraction    Molality    Molality

	H_bgH-            6.351e-05       0.996   3.366e-05      -4.473
	H_bgCa            1.471e-07       0.002   7.795e-08      -7.108
	H_bgMg            1.068e-07       0.002   5.660e-08      -7.247
	H_bgH2            1.628e-08       0.000   8.626e-09      -8.064
	H_bg-2            3.420e-09       0.000   1.813e-09      -8.742

H_c           
	  3.837e-02  moles
	                                   Mole                     Log
	Species               Moles    Fraction    Molality    Molality

	H_c-              2.931e-02       0.764   1.553e-02      -1.809
	H_cCa+            4.577e-03       0.119   2.426e-03      -2.615
	H_cMg+            4.381e-03       0.114   2.322e-03      -2.634
	H_cH              9.904e-05       0.003   5.249e-05      -4.280

H_cd          
	  6.378e-05  moles
	                                   Mole                     Log
	Species               Moles    Fraction    Molality    Molality

	H_cdCa            3.384e-05       0.531   1.793e-05      -4.746
	H_cdMg            2.573e-05       0.403   1.364e-05      -4.865
	H_cd-2            4.036e-06       0.063   2.139e-06      -5.670
	H_cdH-            1.757e-07       0.003   9.309e-08      -7.031
	H_cdH2            5.935e-10       0.000   3.145e-10      -9.502

H_cf          
	  6.378e-02  moles
	                                   Mole                     Log
	Species               Moles    Fraction    Molality    Molality

	H_cfH-            6.018e-02       0.944   3.189e-02      -1.496
	H_cfCa            1.837e-03       0.029   9.738e-04      -3.012
	H_cfMg            1.334e-03       0.021   7.070e-04      -3.151
	H_cf-2            2.242e-04       0.004   1.188e-04      -3.925
	H_cfH2            2.033e-04       0.003   1.078e-04      -3.968

H_ch          
	  6.378e-02  moles
	                                   Mole                     Log
	Species               Moles    Fraction    Molality    Molality

	H_chH-            6.039e-02       0.947   3.201e-02      -1.495
	H_chCa            1.844e-03       0.029   9.772e-04      -3.010
	H_chMg            1.339e-03       0.021   7.095e-04      -3.149
	H_chH2            2.041e-04       0.003   1.081e-04      -3.966
	H_ch-2            4.701e-08       0.000   2.492e-08      -7.604

H_d           
	  3.837e-02  moles
	                                   Mole                     Log
	Species               Moles    Fraction    Molality    Molality

	H_dCa+            1.550e-02       0.404   8.213e-03      -2.086
	H_dMg+            1.483e-02       0.387   7.861e-03      -2.105
	H_d-              7.704e-03       0.201   4.083e-03      -2.389
	H_dH              3.353e-04       0.009   1.777e-04      -3.750

H_de          
	  6.378e-05  moles
	                                   Mole                     Log
	Species               Moles    Fraction    Molality    Molality

	H_deH-            3.221e-05       0.505   1.707e-05      -4.768
	H_deCa            1.267e-05       0.199   6.714e-06      -5.173
	H_deMg            9.198e-06       0.144   4.875e-06      -5.312
	H_de-2            8.303e-06       0.130   4.400e-06      -5.357
	H_deH2            1.402e-06       0.022   7.430e-07      -6.129

H_dg          
	  6.378e-05  moles
	                                   Mole                     Log
	Species               Moles    Fraction    Molality    Molality

	H_dgH-            3.703e-05       0.581   1.962e-05      -4.707
	H_dgCa            1.456e-05       0.228   7.718e-06      -5.112
	H_dgMg            1.057e-05       0.166   5.604e-06      -5.251
	H_dgH2            1.612e-06       0.025   8.541e-07      -6.068
	H_dg-2            1.994e-09       0.000   1.057e-09      -8.976

H_e           
	  1.919e-02  moles
	                                   Mole                     Log
	Species               Moles    Fraction    Molality    Molality

	H_eH              1.509e-02       0.786   7.995e-03      -2.097
	H_e-              3.889e-03       0.203   2.061e-03      -2.686
	H_eCa+            1.131e-04       0.006   5.992e-05      -4.222
	H_eMg+            1.010e-04       0.005   5.353e-05      -4.271

H_f           
	  1.919e-02  moles
	                                   Mole                     Log
	Species               Moles    Fraction    Molality    Molality

	H_fH              1.885e-02       0.982   9.991e-03      -2.000
	H_fCa+            1.413e-04       0.007   7.488e-05      -4.126
	H_fMg+            1.262e-04       0.007   6.689e-05      -4.175
	H_f-              7.024e-05       0.004   3.723e-05      -4.429

H_g           
	  1.919e-02  moles
	                                   Mole                     Log
	Species               Moles    Fraction    Molality    Molality

	H_gH              1.892e-02       0.986   1.003e-02      -1.999
	H_gCa+            1.418e-04       0.007   7.515e-05      -4.124
	H_gMg+            1.267e-04       0.007   6.713e-05      -4.173
	H_g-              1.019e-06       0.000   5.400e-07      -6.268

H_h           
	  1.919e-02  moles
	                                   Mole                     Log
	Species               Moles    Fraction    Molality    Molality

	H_hH              1.892e-02       0.986   1.003e-02      -1.999
	H_hCa+            1.418e-04       0.007   7.515e-05      -4.124
	H_hMg+            1.267e-04       0.007   6.713e-05      -4.173
	H_h-              1.473e-08       0.000   7.806e-09      -8.108

Hfo           
	 -9.688e-15  Surface + diffuse layer charge, eq
	 -1.302e-06  Surface charge, eq
	 -1.047e-02  sigma, C/m²
	 -2.372e-02  psi, V
	  9.551e-01  -F*psi/RT
	  2.599e+00  exp(-F*psi/RT)
	  6.000e+02  specific area, m²/g
	  1.200e+01  m² for   2.000e-02 g

	Water in diffuse layer: 1.200e-08 kg,  0.0% of total DDL-water.

	Total moles in diffuse layer (excluding water), Donnan calculation.
	Donnan Layer potential, psi_DL = -1.168e-01 V.
	Boltzmann factor, exp(-psi_DL * F / RT) = 1.103e+02 (= c_DL / c_free if z is +1).

	Element       	     Moles
	Alanine       	  6.7236e-16
	Amm           	  4.9230e-10
	C             	  1.1833e-11
	Ca            	  2.9327e-07
	Cl            	  1.8487e-12
	Cysteine      	  1.9065e-15
	Ferric        	  8.8927e-15
	Glutamine     	  5.3043e-16
	Glycine       	  7.5037e-14
	H             	  2.0321e-09
	K             	  1.1816e-10
	Mg            	  3.4753e-07
	Na            	  2.0036e-08
	O             	  5.1199e-11
	P             	  2.2459e-12
	Sulfate       	  1.8510e-12
	Threonine     	  5.2969e-16
	Tyrosine      	  5.2904e-16

Hfo_s         
	  6.000e-06  moles
	                                   Mole                     Log
	Species               Moles    Fraction    Molality    Molality

	Hfo_sOHCa+2       5.953e-06       0.992   3.155e-06      -5.501
	Hfo_sOH2+         3.862e-08       0.006   2.047e-08      -7.689
	Hfo_sOH           8.809e-09       0.001   4.668e-09      -8.331
	Hfo_sO-           4.603e-11       0.000   2.439e-11     -10.613

Hfo_w         
	  2.400e-03  moles
	                                   Mole                     Log
	Species               Moles    Fraction    Molality    Molality

	Hfo_wHPO4-        8.990e-04       0.375   4.764e-04      -3.322
	Hfo_wOH2+         8.583e-04       0.358   4.548e-04      -3.342
	Hfo_wOH           1.958e-04       0.082   1.037e-04      -3.984
	Hfo_wOMg+         1.908e-04       0.080   1.011e-04      -3.995
	Hfo_wH2PO4        1.606e-04       0.067   8.509e-05      -4.070
	Hfo_wPO4-2        8.548e-05       0.036   4.530e-05      -4.344
	Hfo_wOCa+         8.905e-06       0.004   4.719e-06      -5.326
	Hfo_wO-           1.023e-06       0.000   5.421e-07      -6.266
	Hfo_wSulfateO4-   1.430e-07       0.000   7.578e-08      -7.120
	Hfo_wOHSulfateO4-2   6.503e-08       0.000   3.446e-08      -7.463

-----------------------------Exchange composition------------------------------

X                1.000e-01 mol

	                               Equiv-    Equivalent      Log 
	Species             Moles      alents      Fraction     Gamma

	MgX2              2.546e-02   5.092e-02   5.092e-01     0.000
	CaX2              1.678e-02   3.356e-02   3.356e-01     0.000
	NaX               1.437e-02   1.437e-02   1.437e-01     0.000
	AmmH4X            6.164e-04   6.164e-04   6.164e-03     0.000
	KX                5.304e-04   5.304e-04   5.304e-03    -0.074
	HX                1.106e-06   1.106e-06   1.106e-05    -0.059

-----------------------------Solution composition------------------------------

	Elements           Molality       Moles

	Alanine           5.056e-04   9.541e-04
	Amm               3.745e-04   7.067e-04
	C                 3.925e-04   7.407e-04
	Ca                2.090e-03   3.943e-03
	Cl                1.700e-02   3.207e-02
	Cysteine          5.056e-04   9.541e-04
	Ferric            1.126e-08   2.124e-08
	Glutamine         5.056e-04   9.541e-04
	Glycine           5.056e-04   9.541e-04
	K                 8.944e-05   1.688e-04
	Mg                2.481e-03   4.682e-03
	Na                1.516e-02   2.861e-02
	P                 7.844e-05   1.480e-04
	Sulfate           8.737e-04   1.649e-03
	Threonine         5.056e-04   9.541e-04
	Tyrosine          5.056e-04   9.541e-04

----------------------------Description of solution----------------------------

                                       pH  =   7.063      Charge balance
                                       pe  =  -7.264      Adjusted to redox equilibrium
      Specific Conductance (µS/cm,  15°C)  = 1843
                        Activity of water  =   0.999
                 Ionic strength (mol/kgw)  =   3.202e-02
                       Mass of water (kg)  =   1.887e+00
                 Total alkalinity (eq/kg)  =   3.417e-03
                       Total CO2 (mol/kg)  =   3.925e-04
                         Temperature (°C)  =  15.00
                  Electrical balance (eq)  =  -1.030e-11
 Percent error, 100*(Cat-|An|)/(Cat+|An|)  =  -0.00
                               Iterations  =   1
                                  Total H  = 2.094843e+02
                                  Total O  = 1.047459e+02

----------------------------Distribution of species----------------------------

                                               Log       Log       Log    mole V
   Species          Molality    Activity  Molality  Activity     Gamma   cm³/mol

   H+              9.906e-08   8.651e-08    -7.004    -7.063    -0.059      0.00
   OH-             6.181e-08   5.206e-08    -7.209    -7.283    -0.075     (0)  
   H2O             5.551e+01   9.993e-01     1.744    -0.000     0.000     18.03
Alanine       5.056e-04
   Alanine-2       5.056e-04   2.621e-04    -3.296    -3.581    -0.285     (0)  
   H2(Alanine)     1.444e-08   1.454e-08    -7.841    -7.837     0.003     (0)  
   H(Alanine)-     5.983e-09   5.077e-09    -8.223    -8.294    -0.071     (0)  
Amm           3.745e-04
   AmmH4+          3.718e-04   3.105e-04    -3.430    -3.508    -0.078     (0)  
   AmmH4SulfateO4-   1.715e-06   1.456e-06    -5.766    -5.837    -0.071     (0)  
   AmmH3           9.766e-07   9.838e-07    -6.010    -6.007     0.003     (0)  
C(4)          3.925e-04
   HCO3-           3.200e-04   2.735e-04    -3.495    -3.563    -0.068     (0)  
   CO2             6.166e-05   6.211e-05    -4.210    -4.207     0.003     (0)  
   MgHCO3+         4.710e-06   3.997e-06    -5.327    -5.398    -0.071     (0)  
   CaHCO3+         3.622e-06   3.095e-06    -5.441    -5.509    -0.068     (0)  
   NaHCO3          1.965e-06   1.980e-06    -5.707    -5.703     0.003     (0)  
   CO3-2           2.210e-07   1.179e-07    -6.656    -6.929    -0.273     (0)  
   CaCO3           1.794e-07   1.807e-07    -6.746    -6.743     0.003     (0)  
   MgCO3           1.237e-07   1.246e-07    -6.908    -6.904     0.003     (0)  
   NaCO3-          1.976e-08   1.677e-08    -7.704    -7.776    -0.071     (0)  
Ca            2.090e-03
   Ca+2            2.008e-03   1.072e-03    -2.697    -2.970    -0.273     (0)  
   CaSulfateO4     7.014e-05   7.066e-05    -4.154    -4.151     0.003     (0)  
   CaHPO4          7.366e-06   7.421e-06    -5.133    -5.130     0.003     (0)  
   CaHCO3+         3.622e-06   3.095e-06    -5.441    -5.509    -0.068     (0)  
   CaH2PO4+        5.991e-07   5.084e-07    -6.222    -6.294    -0.071     (0)  
   CaPO4-          1.968e-07   1.670e-07    -6.706    -6.777    -0.071     (0)  
   CaCO3           1.794e-07   1.807e-07    -6.746    -6.743     0.003     (0)  
   CaOH+           2.421e-09   2.055e-09    -8.616    -8.687    -0.071     (0)  
   CaHSulfateO4+   3.772e-11   3.201e-11   -10.423   -10.495    -0.071     (0)  
Cl            1.700e-02
   Cl-             1.700e-02   1.433e-02    -1.770    -1.844    -0.074     (0)  
   FerricCl+2      3.037e-17   1.574e-17   -16.518   -16.803    -0.285     (0)  
   FerricCl2+      1.649e-18   1.399e-18   -17.783   -17.854    -0.071     (0)  
   FerricCl3       1.991e-21   2.006e-21   -20.701   -20.698     0.003     (0)  
Cysteine      5.056e-04
   Cysteine-2      5.055e-04   2.621e-04    -3.296    -3.582    -0.285     (0)  
   H2(Cysteine)    1.173e-07   1.182e-07    -6.931    -6.927     0.003     (0)  
   H(Cysteine)-    1.370e-09   1.163e-09    -8.863    -8.934    -0.071     (0)  
Ferric        1.126e-08
   Ferric(OH)2+    6.234e-09   5.290e-09    -8.205    -8.277    -0.071     (0)  
   Ferric(OH)3     4.977e-09   5.014e-09    -8.303    -8.300     0.003     (0)  
   Ferric(OH)4-    4.106e-11   3.484e-11   -10.387   -10.458    -0.071     (0)  
   FerricOH+2      3.950e-12   2.048e-12   -11.403   -11.689    -0.285     (0)  
   FerricH2PO4+2   5.930e-16   3.074e-16   -15.227   -15.512    -0.285     (0)  
   FerricSulfateO4+   1.888e-16   1.602e-16   -15.724   -15.795    -0.071     (0)  
   FerricHPO4+     1.751e-16   1.486e-16   -15.757   -15.828    -0.071     (0)  
   Ferric+3        1.708e-16   5.049e-17   -15.767   -16.297    -0.529     (0)  
   FerricCl+2      3.037e-17   1.574e-17   -16.518   -16.803    -0.285     (0)  
   FerricCl2+      1.649e-18   1.399e-18   -17.783   -17.854    -0.071     (0)  
   Ferric(SulfateO4)2-   1.444e-18   1.225e-18   -17.840   -17.912    -0.071     (0)  
   Ferric2(OH)2+4   2.396e-21   1.731e-22   -20.621   -21.762    -1.141     (0)  
   FerricCl3       1.991e-21   2.006e-21   -20.701   -20.698     0.003     (0)  
   FerricHSulfateO4+2   7.306e-23   3.788e-23   -22.136   -22.422    -0.285     (0)  
   Ferric3(OH)4+5   3.016e-26   4.969e-28   -25.521   -27.304    -1.783     (0)  
Glutamine     5.056e-04
   Glutamine-2     5.056e-04   2.621e-04    -3.296    -3.581    -0.285     (0)  
   H(Glutamine)-   3.953e-09   3.354e-09    -8.403    -8.474    -0.071     (0)  
   H2(Glutamine)   2.627e-09   2.647e-09    -8.580    -8.577     0.003     (0)  
Glycine       5.056e-04
   Glycine-        5.056e-04   4.290e-04    -3.296    -3.368    -0.071     (0)  
   H2(Glycine)+    1.507e-08   1.278e-08    -7.822    -7.893    -0.071     (0)  
   H(Glycine)      8.061e-09   8.121e-09    -8.094    -8.090     0.003     (0)  
H(0)          3.941e-03
   H2              1.970e-03   1.985e-03    -2.705    -2.702     0.003     (0)  
K             8.944e-05
   K+              8.925e-05   7.526e-05    -4.049    -4.123    -0.074     (0)  
   KSulfateO4-     1.893e-07   1.607e-07    -6.723    -6.794    -0.071     (0)  
   KHPO4-          2.649e-09   2.248e-09    -8.577    -8.648    -0.071     (0)  
   KOH             2.992e-12   3.014e-12   -11.524   -11.521     0.003     (0)  
Mg            2.481e-03
   Mg+2            2.379e-03   1.292e-03    -2.624    -2.889    -0.265     (0)  
   MgSulfateO4     8.379e-05   8.441e-05    -4.077    -4.074     0.003     (0)  
   MgHPO4          1.200e-05   1.209e-05    -4.921    -4.918     0.003     (0)  
   MgHCO3+         4.710e-06   3.997e-06    -5.327    -5.398    -0.071     (0)  
   MgH2PO4+        9.194e-07   7.801e-07    -6.037    -6.108    -0.071     (0)  
   MgPO4-          3.199e-07   2.714e-07    -6.495    -6.566    -0.071     (0)  
   MgCO3           1.237e-07   1.246e-07    -6.908    -6.904     0.003     (0)  
   MgOH+           2.508e-08   2.128e-08    -7.601    -7.672    -0.071     (0)  
Na            1.516e-02
   Na+             1.513e-02   1.287e-02    -1.820    -1.890    -0.070     (0)  
   NaSulfateO4-    2.591e-05   2.198e-05    -4.587    -4.658    -0.071     (0)  
   NaHCO3          1.965e-06   1.980e-06    -5.707    -5.703     0.003     (0)  
   NaHPO4-         4.531e-07   3.844e-07    -6.344    -6.415    -0.071     (0)  
   NaCO3-          1.976e-08   1.677e-08    -7.704    -7.776    -0.071     (0)  
   NaOH            9.750e-10   9.822e-10    -9.011    -9.008     0.003     (0)  
O(0)          0.000e+00
   O2              0.000e+00   0.000e+00   -90.319   -90.315     0.003     (0)  
P             7.844e-05
   HPO4-2          2.994e-05   1.532e-05    -4.524    -4.815    -0.291     (0)  
   H2PO4-          2.664e-05   2.262e-05    -4.574    -4.645    -0.071     (0)  
   MgHPO4          1.200e-05   1.209e-05    -4.921    -4.918     0.003     (0)  
   CaHPO4          7.366e-06   7.421e-06    -5.133    -5.130     0.003     (0)  
   MgH2PO4+        9.194e-07   7.801e-07    -6.037    -6.108    -0.071     (0)  
   CaH2PO4+        5.991e-07   5.084e-07    -6.222    -6.294    -0.071     (0)  
   NaHPO4-         4.531e-07   3.844e-07    -6.344    -6.415    -0.071     (0)  
   MgPO4-          3.199e-07   2.714e-07    -6.495    -6.566    -0.071     (0)  
   CaPO4-          1.968e-07   1.670e-07    -6.706    -6.777    -0.071     (0)  
   KHPO4-          2.649e-09   2.248e-09    -8.577    -8.648    -0.071     (0)  
   PO4-3           2.931e-10   6.492e-11    -9.533   -10.188    -0.655     (0)  
   FerricH2PO4+2   5.930e-16   3.074e-16   -15.227   -15.512    -0.285     (0)  
   FerricHPO4+     1.751e-16   1.486e-16   -15.757   -15.828    -0.071     (0)  
Sulfate       8.737e-04
   SulfateO4-2     6.920e-04   3.639e-04    -3.160    -3.439    -0.279     (0)  
   MgSulfateO4     8.379e-05   8.441e-05    -4.077    -4.074     0.003     (0)  
   CaSulfateO4     7.014e-05   7.066e-05    -4.154    -4.151     0.003     (0)  
[...]
	H_cMg+            3.383e-03       0.088   1.793e-03      -2.746
	H_cH              8.956e-05       0.002   4.747e-05      -4.324

H_cd          
	  6.378e-05  moles
	                                   Mole                     Log
	Species               Moles    Fraction    Molality    Molality

	H_cdCa            3.287e-05       0.515   1.743e-05      -4.759
	H_cdMg            2.522e-05       0.395   1.337e-05      -4.874
	H_cd-2            5.486e-06       0.086   2.908e-06      -5.536
	H_cdH-            2.016e-07       0.003   1.069e-07      -6.971
	H_cdH2            5.752e-10       0.000   3.049e-10      -9.516

H_cf          
	  6.378e-02  moles
	                                   Mole                     Log
	Species               Moles    Fraction    Molality    Molality

	H_cfH-            6.063e-02       0.951   3.214e-02      -1.493
	H_cfCa            1.567e-03       0.025   8.304e-04      -3.081
	H_cfMg            1.148e-03       0.018   6.084e-04      -3.216
	H_cf-2            2.675e-04       0.004   1.418e-04      -3.848
	H_cfH2            1.729e-04       0.003   9.167e-05      -4.038

H_ch          
	  6.378e-02  moles
	                                   Mole                     Log
	Species               Moles    Fraction    Molality    Molality

	H_chH-            6.088e-02       0.955   3.227e-02      -1.491
	H_chCa            1.573e-03       0.025   8.339e-04      -3.079
	H_chMg            1.153e-03       0.018   6.109e-04      -3.214
	H_chH2            1.737e-04       0.003   9.206e-05      -4.036
	H_ch-2            5.613e-08       0.000   2.976e-08      -7.526

H_d           
	  3.837e-02  moles
	                                   Mole                     Log
	Species               Moles    Fraction    Molality    Molality

	H_dCa+            1.428e-02       0.372   7.569e-03      -2.121
	H_dMg+            1.379e-02       0.359   7.310e-03      -2.136
	H_d-              9.935e-03       0.259   5.266e-03      -2.279
	H_dH              3.651e-04       0.010   1.935e-04      -3.713

H_de          
	  6.378e-05  moles
	                                   Mole                     Log
	Species               Moles    Fraction    Molality    Molality

	H_deH-            3.324e-05       0.521   1.762e-05      -4.754
	H_deCa            1.107e-05       0.173   5.865e-06      -5.232
	H_de-2            1.015e-05       0.159   5.379e-06      -5.269
	H_deMg            8.106e-06       0.127   4.297e-06      -5.367
	H_deH2            1.222e-06       0.019   6.475e-07      -6.189

H_dg          
	  6.378e-05  moles
	                                   Mole                     Log
	Species               Moles    Fraction    Molality    Molality

	H_dgH-            3.953e-05       0.620   2.095e-05      -4.679
	H_dgCa            1.316e-05       0.206   6.975e-06      -5.156
	H_dgMg            9.640e-06       0.151   5.110e-06      -5.292
	H_dgH2            1.453e-06       0.023   7.700e-07      -6.114
	H_dg-2            2.521e-09       0.000   1.337e-09      -8.874

H_e           
	  1.919e-02  moles
	                                   Mole                     Log
	Species               Moles    Fraction    Molality    Molality

	H_eH              1.457e-02       0.759   7.722e-03      -2.112
	H_e-              4.447e-03       0.232   2.357e-03      -2.628
	H_eCa+            9.240e-05       0.005   4.898e-05      -4.310
	H_eMg+            8.328e-05       0.004   4.414e-05      -4.355

H_f           
	  1.919e-02  moles
	                                   Mole                     Log
	Species               Moles    Fraction    Molality    Molality

	H_fH              1.888e-02       0.984   1.001e-02      -2.000
	H_fCa+            1.198e-04       0.006   6.348e-05      -4.197
	H_fMg+            1.079e-04       0.006   5.721e-05      -4.243
	H_f-              8.331e-05       0.004   4.416e-05      -4.355

H_g           
	  1.919e-02  moles
	                                   Mole                     Log
	Species               Moles    Fraction    Molality    Molality

	H_gH              1.896e-02       0.988   1.005e-02      -1.998
	H_gCa+            1.203e-04       0.006   6.375e-05      -4.195
	H_gMg+            1.084e-04       0.006   5.746e-05      -4.241
	H_g-              1.209e-06       0.000   6.411e-07      -6.193

H_h           
	  1.919e-02  moles
	                                   Mole                     Log
	Species               Moles    Fraction    Molality    Molality

	H_hH              1.896e-02       0.988   1.005e-02      -1.998
	H_hCa+            1.203e-04       0.006   6.376e-05      -4.195
	H_hMg+            1.084e-04       0.006   5.746e-05      -4.241
	H_h-              1.748e-08       0.000   9.267e-09      -8.033

Hfo           
	 -3.040e-16  Surface + diffuse layer charge, eq
	 -1.381e-06  Surface charge, eq
	 -1.110e-02  sigma, C/m²
	 -1.660e-02  psi, V
	  6.685e-01  -F*psi/RT
	  1.951e+00  exp(-F*psi/RT)
	  6.000e+02  specific area, m²/g
	  1.200e+01  m² for   2.000e-02 g

	Water in diffuse layer: 1.200e-08 kg,  0.0% of total DDL-water.

	Total moles in diffuse layer (excluding water), Donnan calculation.
	Donnan Layer potential, psi_DL = -1.060e-01 V.
	Boltzmann factor, exp(-psi_DL * F / RT) = 7.135e+01 (= c_DL / c_free if z is +1).

	Element       	     Moles
	Alanine       	  1.4660e-15
	Amm           	  3.9902e-10
	C             	  1.0697e-10
	Ca            	  3.0981e-07
	Cl            	  7.7594e-12
	Cysteine      	  3.4075e-15
	Ferric        	  8.7327e-15
	Glutamine     	  1.2427e-15
	Glycine       	  1.1119e-13
	H             	  2.0561e-09
	K             	  7.6805e-10
	Mg            	  3.6455e-07
	Na            	  3.1118e-08
	O             	  3.7268e-10
	P             	  2.5357e-12
	Sulfate       	  1.2079e-11
	Threonine     	  1.2415e-15
	Tyrosine      	  1.2405e-15

Hfo_s         
	  6.000e-06  moles
	                                   Mole                     Log
	Species               Moles    Fraction    Molality    Molality

	Hfo_sOHCa+2       5.956e-06       0.993   3.157e-06      -5.501
	Hfo_sOH2+         3.616e-08       0.006   1.917e-08      -7.717
	Hfo_sOH           7.737e-09       0.001   4.101e-09      -8.387
	Hfo_sO-           3.793e-11       0.000   2.010e-11     -10.697

Hfo_w         
	  2.400e-03  moles
	                                   Mole                     Log
	Species               Moles    Fraction    Molality    Molality

	Hfo_wHPO4-        9.056e-04       0.377   4.800e-04      -3.319
	Hfo_wOH2+         8.550e-04       0.356   4.532e-04      -3.344
	Hfo_wOMg+         1.923e-04       0.080   1.019e-04      -3.992
	Hfo_wOH           1.830e-04       0.076   9.698e-05      -4.013
	Hfo_wH2PO4        1.724e-04       0.072   9.139e-05      -4.039
	Hfo_wPO4-2        8.077e-05       0.034   4.282e-05      -4.368
	Hfo_wOCa+         8.893e-06       0.004   4.714e-06      -5.327
	Hfo_wO-           8.968e-07       0.000   4.754e-07      -6.323
	Hfo_wSulfateO4-   8.202e-07       0.000   4.348e-07      -6.362
	Hfo_wOHSulfateO4-2   3.495e-07       0.000   1.852e-07      -6.732

-----------------------------Exchange composition------------------------------

X                1.000e-01 mol

	                               Equiv-    Equivalent      Log 
	Species             Moles      alents      Fraction     Gamma

	MgX2              2.255e-02   4.511e-02   4.511e-01     0.000
	NaX               2.144e-02   2.144e-02   2.144e-01     0.000
	CaX2              1.474e-02   2.947e-02   2.947e-01     0.000
	KX                3.514e-03   3.514e-03   3.514e-02    -0.104
	AmmH4X            4.701e-04   4.701e-04   4.701e-03     0.000
	HX                1.078e-06   1.078e-06   1.078e-05    -0.076

-----------------------------Solution composition------------------------------

	Elements           Molality       Moles

	Alanine           5.058e-04   9.541e-04
	Amm               4.737e-04   8.936e-04
	C                 2.906e-03   5.482e-03
	Ca                5.587e-03   1.054e-02
	Cl                4.613e-02   8.703e-02
	Cysteine          5.058e-04   9.541e-04
	Ferric            1.437e-08   2.711e-08
	Glutamine         5.058e-04   9.541e-04
	Glycine           5.057e-04   9.541e-04
	K                 9.032e-04   1.704e-03
	Mg                6.598e-03   1.245e-02
	Na                3.658e-02   6.900e-02
	P                 7.112e-05   1.342e-04
	Sulfate           4.080e-03   7.698e-03
	Threonine         5.058e-04   9.541e-04
	Tyrosine          5.058e-04   9.541e-04

----------------------------Description of solution----------------------------

                                       pH  =   6.911      Charge balance
                                       pe  =  -7.552      Adjusted to redox equilibrium
      Specific Conductance (µS/cm,  15°C)  = 4648
                        Activity of water  =   0.998
                 Ionic strength (mol/kgw)  =   7.636e-02
                       Mass of water (kg)  =   1.887e+00
                 Total alkalinity (eq/kg)  =   5.429e-03
                       Total CO2 (mol/kg)  =   2.906e-03
                         Temperature (°C)  =  15.00
                  Electrical balance (eq)  =  -1.030e-11
 Percent error, 100*(Cat-|An|)/(Cat+|An|)  =  -0.00
                               Iterations  =   1
                                  Total H  = 2.094907e+02
                                  Total O  = 1.047601e+02

----------------------------Distribution of species----------------------------

                                               Log       Log       Log    mole V
   Species          Molality    Activity  Molality  Activity     Gamma   cm³/mol

   H+              1.465e-07   1.228e-07    -6.834    -6.911    -0.076      0.00
   OH-             4.667e-08   3.662e-08    -7.331    -7.436    -0.105     (0)  
   H2O             5.551e+01   9.980e-01     1.744    -0.001     0.000     18.03
Alanine       5.058e-04
   Alanine-2       5.057e-04   2.067e-04    -3.296    -3.685    -0.389     (0)  
   H2(Alanine)     2.272e-08   2.312e-08    -7.644    -7.636     0.008     (0)  
   H(Alanine)-     7.110e-09   5.685e-09    -8.148    -8.245    -0.097     (0)  
Amm           4.737e-04
   AmmH4+          4.661e-04   3.592e-04    -3.332    -3.445    -0.113     (0)  
   AmmH4SulfateO4-   6.827e-06   5.458e-06    -5.166    -5.263    -0.097     (0)  
   AmmH3           7.877e-07   8.016e-07    -6.104    -6.096     0.008     (0)  
C(4)          2.906e-03
   HCO3-           2.195e-03   1.771e-03    -2.659    -2.752    -0.093     (0)  
   CO2             5.619e-04   5.719e-04    -3.250    -3.243     0.008     (0)  
   MgHCO3+         6.600e-05   5.277e-05    -4.180    -4.278    -0.097     (0)  
   CaHCO3+         5.020e-05   4.051e-05    -4.299    -4.392    -0.093     (0)  
   NaHCO3          2.851e-05   2.901e-05    -4.545    -4.537     0.008     (0)  
   CaCO3           1.637e-06   1.666e-06    -5.786    -5.778     0.008     (0)  
   CO3-2           1.268e-06   5.377e-07    -5.897    -6.269    -0.373     (0)  
   MgCO3           1.139e-06   1.159e-06    -5.944    -5.936     0.008     (0)  
   NaCO3-          2.164e-07   1.731e-07    -6.665    -6.762    -0.097     (0)  
Ca            5.587e-03
   Ca+2            5.071e-03   2.166e-03    -2.295    -2.664    -0.369     (0)  
   CaSulfateO4     4.548e-04   4.629e-04    -3.342    -3.335     0.008     (0)  
   CaHCO3+         5.020e-05   4.051e-05    -4.299    -4.392    -0.093     (0)  
   CaHPO4          8.388e-06   8.536e-06    -5.076    -5.069     0.008     (0)  
   CaCO3           1.637e-06   1.666e-06    -5.786    -5.778     0.008     (0)  
   CaH2PO4+        1.038e-06   8.303e-07    -5.984    -6.081    -0.097     (0)  
   CaPO4-          1.692e-07   1.353e-07    -6.772    -6.869    -0.097     (0)  
   CaOH+           3.653e-09   2.921e-09    -8.437    -8.535    -0.097     (0)  
   CaHSulfateO4+   3.723e-10   2.977e-10    -9.429    -9.526    -0.097     (0)  
Cl            4.613e-02
   Cl-             4.613e-02   3.629e-02    -1.336    -1.440    -0.104     (0)  
   FerricCl+2      2.802e-16   1.145e-16   -15.552   -15.941    -0.389     (0)  
   FerricCl2+      3.224e-17   2.578e-17   -16.492   -16.589    -0.097     (0)  
   FerricCl3       9.193e-20   9.357e-20   -19.037   -19.029     0.008     (0)  
Cysteine      5.058e-04
   Cysteine-2      5.056e-04   2.067e-04    -3.296    -3.685    -0.389     (0)  
   H2(Cysteine)    1.846e-07   1.879e-07    -6.734    -6.726     0.008     (0)  
   H(Cysteine)-    1.628e-09   1.302e-09    -8.788    -8.885    -0.097     (0)  
Ferric        1.437e-08
   Ferric(OH)2+    9.405e-09   7.520e-09    -8.027    -8.124    -0.097     (0)  
   Ferric(OH)3     4.926e-09   5.014e-09    -8.307    -8.300     0.008     (0)  
   Ferric(OH)4-    3.065e-11   2.451e-11   -10.514   -10.611    -0.097     (0)  
   FerricOH+2      1.012e-11   4.139e-12   -10.995   -11.383    -0.389     (0)  
   FerricSulfateO4+   1.866e-15   1.492e-15   -14.729   -14.826    -0.097     (0)  
   FerricH2PO4+2   1.746e-15   7.139e-16   -14.758   -15.146    -0.389     (0)  
   Ferric+3        7.076e-16   1.451e-16   -15.150   -15.838    -0.688     (0)  
   FerricHPO4+     3.039e-16   2.430e-16   -15.517   -15.614    -0.097     (0)  
   FerricCl+2      2.802e-16   1.145e-16   -15.552   -15.941    -0.389     (0)  
   Ferric(SulfateO4)2-   4.626e-17   3.699e-17   -16.335   -16.432    -0.097     (0)  
   FerricCl2+      3.224e-17   2.578e-17   -16.492   -16.589    -0.097     (0)  
   FerricCl3       9.193e-20   9.357e-20   -19.037   -19.029     0.008     (0)  
   Ferric2(OH)2+4   2.532e-20   7.070e-22   -19.597   -21.151    -1.554     (0)  
   FerricHSulfateO4+2   1.225e-21   5.008e-22   -20.912   -21.300    -0.389     (0)  
   Ferric3(OH)4+5   7.734e-25   2.886e-27   -24.112   -26.540    -2.428     (0)  
Glutamine     5.058e-04
   Glutamine-2     5.057e-04   2.067e-04    -3.296    -3.685    -0.389     (0)  
   H(Glutamine)-   4.698e-09   3.756e-09    -8.328    -8.425    -0.097     (0)  
   H2(Glutamine)   4.135e-09   4.208e-09    -8.384    -8.376     0.008     (0)  
Glycine       5.057e-04
   Glycine-        5.057e-04   4.044e-04    -3.296    -3.393    -0.097     (0)  
   H2(Glycine)+    3.038e-08   2.429e-08    -7.517    -7.615    -0.097     (0)  
   H(Glycine)      1.068e-08   1.087e-08    -7.972    -7.964     0.008     (0)  
H(0)          2.956e-02
   H2              1.478e-02   1.504e-02    -1.830    -1.823     0.008     (0)  
K             9.032e-04
   K+              8.971e-04   7.058e-04    -3.047    -3.151    -0.104     (0)  
   KSulfateO4-     6.107e-06   4.883e-06    -5.214    -5.311    -0.097     (0)  
   KHPO4-          1.501e-08   1.200e-08    -7.824    -7.921    -0.097     (0)  
   KOH             1.953e-11   1.988e-11   -10.709   -10.702     0.008     (0)  
Mg            6.598e-03
   Mg+2            5.967e-03   2.634e-03    -2.224    -2.579    -0.355     (0)  
   MgSulfateO4     5.482e-04   5.579e-04    -3.261    -3.253     0.008     (0)  
   MgHCO3+         6.600e-05   5.277e-05    -4.180    -4.278    -0.097     (0)  
   MgHPO4          1.379e-05   1.403e-05    -4.861    -4.853     0.008     (0)  
   MgH2PO4+        1.608e-06   1.286e-06    -5.794    -5.891    -0.097     (0)  
   MgCO3           1.139e-06   1.159e-06    -5.944    -5.936     0.008     (0)  
   MgPO4-          2.775e-07   2.219e-07    -6.557    -6.654    -0.097     (0)  
   MgOH+           3.817e-08   3.052e-08    -7.418    -7.515    -0.097     (0)  
Na            3.658e-02
   Na+             3.635e-02   2.913e-02    -1.440    -1.536    -0.096     (0)  
   NaSulfateO4-    2.017e-04   1.613e-04    -3.695    -3.792    -0.097     (0)  
   NaHCO3          2.851e-05   2.901e-05    -4.545    -4.537     0.008     (0)  
   NaHPO4-         6.194e-07   4.953e-07    -6.208    -6.305    -0.097     (0)  
   NaCO3-          2.164e-07   1.731e-07    -6.665    -6.762    -0.097     (0)  
   NaOH            1.536e-09   1.564e-09    -8.814    -8.806     0.008     (0)  
O(0)          0.000e+00
   O2              0.000e+00   0.000e+00   -92.083   -92.076     0.008     (0)  
P             7.112e-05
   H2PO4-          2.294e-05   1.828e-05    -4.639    -4.738    -0.099     (0)  
   HPO4-2          2.228e-05   8.720e-06    -4.652    -5.059    -0.407     (0)  
   MgHPO4          1.379e-05   1.403e-05    -4.861    -4.853     0.008     (0)  
   CaHPO4          8.388e-06   8.536e-06    -5.076    -5.069     0.008     (0)  
   MgH2PO4+        1.608e-06   1.286e-06    -5.794    -5.891    -0.097     (0)  
   CaH2PO4+        1.038e-06   8.303e-07    -5.984    -6.081    -0.097     (0)  
   NaHPO4-         6.194e-07   4.953e-07    -6.208    -6.305    -0.097     (0)  
   MgPO4-          2.775e-07   2.219e-07    -6.557    -6.654    -0.097     (0)  
   CaPO4-          1.692e-07   1.353e-07    -6.772    -6.869    -0.097     (0)  
   KHPO4-          1.501e-08   1.200e-08    -7.824    -7.921    -0.097     (0)  
   PO4-3           2.147e-10   2.603e-11    -9.668   -10.585    -0.917     (0)  
   FerricH2PO4+2   1.746e-15   7.139e-16   -14.758   -15.146    -0.389     (0)  
   FerricHPO4+     3.039e-16   2.430e-16   -15.517   -15.614    -0.097     (0)  
Sulfate       4.080e-03
   SulfateO4-2     2.863e-03   1.180e-03    -2.543    -2.928    -0.385     (0)  
   MgSulfateO4     5.482e-04   5.579e-04    -3.261    -3.253     0.008     (0)  
   CaSulfateO4     4.548e-04   4.629e-04    -3.342    -3.335     0.008     (0)  
   NaSulfateO4-    2.017e-04   1.613e-04    -3.695    -3.792    -0.097     (0)  
   AmmH4SulfateO4-   6.827e-06   5.458e-06    -5.166    -5.263    -0.097     (0)  
   KSulfateO4-     6.107e-06   4.883e-06    -5.214    -5.311    -0.097     (0)  
   HSulfateO4-     1.430e-08   1.143e-08    -7.845    -7.942    -0.097     (0)  
   CaHSulfateO4+   3.723e-10   2.977e-10    -9.429    -9.526    -0.097     (0)  
   FerricSulfateO4+   1.866e-15   1.492e-15   -14.729   -14.826    -0.097     (0)  
   Ferric(SulfateO4)2-   4.626e-17   3.699e-17   -16.335   -16.432    -0.097     (0)  
   FerricHSulfateO4+2   1.225e-21   5.008e-22   -20.912   -21.300    -0.389     (0)  
Threonine     5.058e-04
   Threonine-2     5.057e-04   2.067e-04    -3.296    -3.685    -0.389     (0)  
   H(Threonine)-   4.486e-09   3.587e-09    -8.348    -8.445    -0.097     (0)  
   H2(Threonine)   4.040e-09   4.112e-09    -8.394    -8.386     0.008     (0)  
Tyrosine      5.058e-04
   Tyrosine-2      5.057e-04   2.067e-04    -3.296    -3.685    -0.389     (0)  
   H(Tyrosine)-    5.034e-09   4.025e-09    -8.298    -8.395    -0.097     (0)  
   H2(Tyrosine)    3.948e-09   4.018e-09    -8.404    -8.396     0.008     (0)  

------------------------------Saturation indices-------------------------------

  Phase               SI** log IAP   log K(288 K,   1 atm)

  FixpH            -6.91     -6.91    0.00  H+
  H2(g)             1.28     -1.82   -3.11  H2
  H2O(g)           -1.78     -0.00    1.78  H2O
  Halite           -4.53     -2.98    1.56  NaCl
  Hydroxyapatite    1.64     -0.86   -2.50  Ca5(PO4)3OH
  redoxAnhydrite   -1.26     -5.59   -4.34  CaSulfateO4
  redoxAragonite   -0.65     -8.93   -8.28  CaCO3
  redoxCalcite     -0.50     -8.93   -8.43  CaCO3
  redoxCO2(g)      -1.90     -3.24   -1.34  CO2
  redoxDolomite    -0.93    -17.78  -16.85  CaMg(CO3)2
  redoxFe(OH)3(a)   0.00      4.89    4.89  Ferric(OH)3
  redoxGoethite     5.52      4.89   -0.63  FerricOOH
  redoxGypsum      -1.01     -5.59   -4.58  CaSulfateO4:2H2O
  redoxHematite    13.01      9.78   -3.22  Ferric2O3
  redoxJarosite-K  -6.65    -15.06   -8.41  KFerric3(SulfateO4)2(OH)6
  redoxNH3(g)      -8.07     -6.10    1.98  AmmH3

**For a gas, SI = log10(fugacity). Fugacity = pressure * phi / 1 atm.
  For ideal gases, phi = 1.

------------------
End of simulation.
------------------

------------------------------------
Reading input data for simulation 4.
------------------------------------

----------------------------------
End of Run after 0.074934 Seconds.
----------------------------------

