   Input file: closed_redox_sw3.phrq
  Output file: closed_redox_sw3.phrq.out
Database file: ../database/redox.dat

------------------
Reading data base.
------------------

	SOLUTION_MASTER_SPECIES
	SOLUTION_SPECIES
	PHASES
	EXCHANGE_MASTER_SPECIES
	EXCHANGE_SPECIES
	SURFACE_MASTER_SPECIES
	SURFACE_SPECIES
	RATES
	END
------------------------------------
Reading input data for simulation 1.
------------------------------------

	DATABASE ../database/redox.dat
	TITLE  MEND and redox coupling
	CALCULATE_VALUES
	SC_T25
	 start
	 10 sc25 = SC/(1+0.021*(temperature-25))   #in us/cm
	 20 SAVE sc25
	 end
	fsl1    ##more sensitive (green)
	 start
	 10 fsl1 = 1 / (1.0 + exp(1.68 * (log10(CALC_VALUE("SC_T25")/1000)+0.26))) #log(ds/m)
	 40 SAVE fsl1
	 end
	fsl2     ##medium (purple)
	 start
	 10 fsl2 = 1 / (1.0 + exp(2.28 * (log10(CALC_VALUE("SC_T25")/1000)-0.60)))  #log(ds/m)
	 40 SAVE fsl2
	 end
	fsl3     ##medium (red)
	 start
	 10 fsl3 = 1 / (1.0 + exp(2.23 * (log10(CALC_VALUE("SC_T25")/1000)-1.11)))  #log(ds/m)
	 40 SAVE fsl3
	 end
	fsl4    ##more resistant (black)
	 start
	 10 fsl4 = 1 / (1.0 + exp(4.03 * (log10(CALC_VALUE("SC_T25")/1000)-1.78)))  #log(ds/m)
	 40 SAVE fsl4
	 end
	SOLUTION 1    
	units umol/L        #3.774L total volume  ##based on clay fresh system
	pH    7  charge
	temperature 	 25
	water         1.887   #default is 1 kg
	P           5
	Amm         38
	Na          114
	Ca          183
	Cl          133 
	Sulfate     4 
	K           28
	Mg          79
	C(4)        9  
	Nitrate        0
	Ferric       50
	Alanine      52
	Cysteine     52
	Glycine      52
	Glutamine    52
	Threonine    52
	Tyrosine     52
	Ozero        600    redoxO2(g) -0.7
	Methane      1
	Sulfide      0.1
	  SAVE SOLUTION 1
	END
-----
TITLE
-----

  MEND and redox coupling

-------------------------------------------
Beginning of initial solution calculations.
-------------------------------------------

Initial solution 1.	

-----------------------------Solution composition------------------------------

	Elements           Molality       Moles

	Alanine           5.200e-05   9.813e-05
	Amm               3.800e-05   7.171e-05
	C(4)              9.001e-06   1.698e-05
	Ca                1.830e-04   3.453e-04
	Cl                1.330e-04   2.510e-04
	Cysteine          5.200e-05   9.813e-05
	Ferric            5.000e-05   9.436e-05
	Glutamine         5.200e-05   9.813e-05
	Glycine           5.200e-05   9.813e-05
	K                 2.800e-05   5.284e-05
	Methane           1.000e-06   1.887e-06
	Mg                7.901e-05   1.491e-04
	Na                1.140e-04   2.151e-04
	Ozero             5.111e-04   9.645e-04  Equilibrium with redoxO2(g)
	P                 5.000e-06   9.436e-06
	Sulfate           4.000e-06   7.549e-06
	Sulfide           1.000e-07   1.887e-07
	Threonine         5.200e-05   9.813e-05
	Tyrosine          5.200e-05   9.813e-05

----------------------------Description of solution----------------------------

                                       pH  =   6.951      Charge balance
                                       pe  =   4.000    
      Specific Conductance (µS/cm,  25°C)  = 49
                        Activity of water  =   1.000
                 Ionic strength (mol/kgw)  =   1.254e-03
                       Mass of water (kg)  =   1.887e+00
                 Total alkalinity (eq/kg)  =   3.480e-04
                       Total CO2 (mol/kg)  =   9.001e-06
                         Temperature (°C)  =  25.00
                  Electrical balance (eq)  =   1.862e-17
 Percent error, 100*(Cat-|An|)/(Cat+|An|)  =   0.00
                               Iterations  =   8
                                  Total H  = 2.094810e+02
                                  Total O  = 1.047406e+02

----------------------------Distribution of species----------------------------

                                               Log       Log       Log    mole V
   Species          Molality    Activity  Molality  Activity     Gamma   cm³/mol

   H+              1.163e-07   1.120e-07    -6.935    -6.951    -0.016      0.00
   OH-             9.305e-08   8.941e-08    -7.031    -7.049    -0.017     (0)  
   H2O             5.551e+01   1.000e+00     1.744    -0.000     0.000     18.07
Alanine       5.200e-05
   Alanine-2       5.200e-05   4.436e-05    -4.284    -4.353    -0.069     (0)  
   H2(Alanine)     4.121e-09   4.123e-09    -8.385    -8.385     0.000     (0)  
   H(Alanine)-     1.157e-09   1.112e-09    -8.937    -8.954    -0.017     (0)  
Amm           3.800e-05
   AmmH4+          3.782e-05   3.632e-05    -4.422    -4.440    -0.018     (0)  
   AmmH3           1.848e-07   1.848e-07    -6.733    -6.733     0.000     (0)  
   AmmH4SulfateO4-   1.598e-09   1.536e-09    -8.796    -8.814    -0.017     (0)  
C(4)          9.001e-06
   HCO3-           7.227e-06   6.949e-06    -5.141    -5.158    -0.017     (0)  
   CO2             1.749e-06   1.750e-06    -5.757    -5.757     0.000     (0)  
   CaHCO3+         1.441e-08   1.385e-08    -7.841    -7.858    -0.017     (0)  
   MgHCO3+         5.710e-09   5.487e-09    -8.243    -8.261    -0.017     (0)  
   CO3-2           3.404e-09   2.911e-09    -8.468    -8.536    -0.068     (0)  
   CaCO3           7.637e-10   7.639e-10    -9.117    -9.117     0.000     (0)  
   NaHCO3          4.281e-10   4.283e-10    -9.368    -9.368     0.000     (0)  
   MgCO3           1.874e-10   1.874e-10    -9.727    -9.727     0.000     (0)  
   NaCO3-          6.180e-12   5.940e-12   -11.209   -11.226    -0.017     (0)  
Ca            1.830e-04
   Ca+2            1.827e-04   1.562e-04    -3.738    -3.806    -0.068     (0)  
   CaHPO4          1.339e-07   1.339e-07    -6.873    -6.873     0.000     (0)  
   CaSulfateO4     1.023e-07   1.023e-07    -6.990    -6.990     0.000     (0)  
   CaHCO3+         1.441e-08   1.385e-08    -7.841    -7.858    -0.017     (0)  
   CaH2PO4+        1.173e-08   1.127e-08    -7.931    -7.948    -0.017     (0)  
   CaPO4-          2.944e-09   2.829e-09    -8.531    -8.548    -0.017     (0)  
   CaCO3           7.637e-10   7.639e-10    -9.117    -9.117     0.000     (0)  
   CaOH+           2.410e-10   2.316e-10    -9.618    -9.635    -0.017     (0)  
   CaHSulfateO4+   6.984e-14   6.712e-14   -13.156   -13.173    -0.017     (0)  
Cl            1.330e-04
   Cl-             1.330e-04   1.278e-04    -3.876    -3.893    -0.017     (0)  
   FerricCl+2      6.028e-16   5.142e-16   -15.220   -15.289    -0.069     (0)  
   FerricCl2+      3.055e-19   2.936e-19   -18.515   -18.532    -0.017     (0)  
   FerricCl3       3.751e-24   3.752e-24   -23.426   -23.426     0.000     (0)  
Cysteine      5.200e-05
   Cysteine-2      5.197e-05   4.433e-05    -4.284    -4.353    -0.069     (0)  
   H2(Cysteine)    3.348e-08   3.349e-08    -7.475    -7.475     0.000     (0)  
   H(Cysteine)-    2.649e-10   2.546e-10    -9.577    -9.594    -0.017     (0)  
Ferric        5.000e-05
   Ferric(OH)3     2.613e-05   2.614e-05    -4.583    -4.583     0.000     (0)  
   Ferric(OH)2+    2.364e-05   2.272e-05    -4.626    -4.644    -0.017     (0)  
   Ferric(OH)4-    2.215e-07   2.129e-07    -6.655    -6.672    -0.017     (0)  
   FerricOH+2      9.006e-09   7.683e-09    -8.045    -8.114    -0.069     (0)  
   Ferric+3        1.870e-13   1.332e-13   -12.728   -12.875    -0.147     (0)  
   FerricH2PO4+2   1.185e-13   1.011e-13   -12.926   -12.995    -0.069     (0)  
   FerricHPO4+     5.833e-14   5.605e-14   -13.234   -13.251    -0.017     (0)  
   FerricSulfateO4+   4.990e-15   4.795e-15   -14.302   -14.319    -0.017     (0)  
   Ferric2(OH)2+4   3.000e-15   1.589e-15   -14.523   -14.799    -0.276     (0)  
   FerricCl+2      6.028e-16   5.142e-16   -15.220   -15.289    -0.069     (0)  
   Ferric3(OH)4+5   2.036e-17   7.541e-18   -16.691   -17.123    -0.431     (0)  
   Ferric(SulfateO4)2-   3.583e-19   3.444e-19   -18.446   -18.463    -0.017     (0)  
   FerricCl2+      3.055e-19   2.936e-19   -18.515   -18.532    -0.017     (0)  
   FerricHSulfateO4+2   1.685e-21   1.438e-21   -20.773   -20.842    -0.069     (0)  
   FerricCl3       3.751e-24   3.752e-24   -23.426   -23.426     0.000     (0)  
Glutamine     5.200e-05
   Glutamine-2     5.200e-05   4.436e-05    -4.284    -4.353    -0.069     (0)  
   H(Glutamine)-   7.645e-10   7.347e-10    -9.117    -9.134    -0.017     (0)  
   H2(Glutamine)   7.500e-10   7.502e-10    -9.125    -9.125     0.000     (0)  
Glycine       5.200e-05
   Glycine-        5.200e-05   4.997e-05    -4.284    -4.301    -0.017     (0)  
   H2(Glycine)+    2.595e-09   2.494e-09    -8.586    -8.603    -0.017     (0)  
   H(Glycine)      1.224e-09   1.224e-09    -8.912    -8.912     0.000     (0)  
H(0)          1.775e-25
   H2              8.873e-26   8.875e-26   -25.052   -25.052     0.000     (0)  
K             2.800e-05
   K+              2.800e-05   2.691e-05    -4.553    -4.570    -0.017     (0)  
   KSulfateO4-     6.457e-10   6.206e-10    -9.190    -9.207    -0.017     (0)  
   KHPO4-          8.533e-11   8.200e-11   -10.069   -10.086    -0.017     (0)  
   KOH             8.329e-13   8.332e-13   -12.079   -12.079     0.000     (0)  
Methane       1.000e-06
   MethaneH4       1.000e-06   1.000e-06    -6.000    -6.000     0.000     (0)  
Mg            7.901e-05
   Mg+2            7.886e-05   6.748e-05    -4.103    -4.171    -0.068     (0)  
   MgHPO4          7.818e-08   7.820e-08    -7.107    -7.107     0.000     (0)  
   MgSulfateO4     5.192e-08   5.193e-08    -7.285    -7.285     0.000     (0)  
   MgH2PO4+        6.450e-09   6.199e-09    -8.190    -8.208    -0.017     (0)  
   MgHCO3+         5.710e-09   5.487e-09    -8.243    -8.261    -0.017     (0)  
   MgOH+           2.277e-09   2.188e-09    -8.643    -8.660    -0.017     (0)  
   MgPO4-          1.715e-09   1.649e-09    -8.766    -8.783    -0.017     (0)  
   MgCO3           1.874e-10   1.874e-10    -9.727    -9.727     0.000     (0)  
Na            1.140e-04
   Na+             1.140e-04   1.096e-04    -3.943    -3.960    -0.017     (0)  
   NaSulfateO4-    1.876e-09   1.803e-09    -8.727    -8.744    -0.017     (0)  
   NaHCO3          4.281e-10   4.283e-10    -9.368    -9.368     0.000     (0)  
   NaHPO4-         3.475e-10   3.340e-10    -9.459    -9.476    -0.017     (0)  
   NaOH            6.464e-12   6.466e-12   -11.189   -11.189     0.000     (0)  
   NaCO3-          6.180e-12   5.940e-12   -11.209   -11.226    -0.017     (0)  
O(0)          0.000e+00
   O2              0.000e+00   0.000e+00   -42.277   -42.276     0.000     (0)  
Ozero         5.111e-04
   Ozero2          2.556e-04   2.556e-04    -3.592    -3.592     0.000     (0)  
P             5.000e-06
   H2PO4-          2.933e-06   2.819e-06    -5.533    -5.550    -0.017     (0)  
   HPO4-2          1.832e-06   1.563e-06    -5.737    -5.806    -0.069     (0)  
   CaHPO4          1.339e-07   1.339e-07    -6.873    -6.873     0.000     (0)  
   MgHPO4          7.818e-08   7.820e-08    -7.107    -7.107     0.000     (0)  
   CaH2PO4+        1.173e-08   1.127e-08    -7.931    -7.948    -0.017     (0)  
   MgH2PO4+        6.450e-09   6.199e-09    -8.190    -8.208    -0.017     (0)  
   CaPO4-          2.944e-09   2.829e-09    -8.531    -8.548    -0.017     (0)  
   MgPO4-          1.715e-09   1.649e-09    -8.766    -8.783    -0.017     (0)  
   NaHPO4-         3.475e-10   3.340e-10    -9.459    -9.476    -0.017     (0)  
   KHPO4-          8.533e-11   8.200e-11   -10.069   -10.086    -0.017     (0)  
   PO4-3           9.000e-12   6.294e-12   -11.046   -11.201    -0.155     (0)  
   FerricH2PO4+2   1.185e-13   1.011e-13   -12.926   -12.995    -0.069     (0)  
   FerricHPO4+     5.833e-14   5.605e-14   -13.234   -13.251    -0.017     (0)  
Sulfate       4.000e-06
   SulfateO4-2     3.842e-06   3.283e-06    -5.415    -5.484    -0.068     (0)  
   CaSulfateO4     1.023e-07   1.023e-07    -6.990    -6.990     0.000     (0)  
   MgSulfateO4     5.192e-08   5.193e-08    -7.285    -7.285     0.000     (0)  
   NaSulfateO4-    1.876e-09   1.803e-09    -8.727    -8.744    -0.017     (0)  
   AmmH4SulfateO4-   1.598e-09   1.536e-09    -8.796    -8.814    -0.017     (0)  
   KSulfateO4-     6.457e-10   6.206e-10    -9.190    -9.207    -0.017     (0)  
   HSulfateO4-     3.718e-11   3.573e-11   -10.430   -10.447    -0.017     (0)  
   CaHSulfateO4+   6.984e-14   6.712e-14   -13.156   -13.173    -0.017     (0)  
   FerricSulfateO4+   4.990e-15   4.795e-15   -14.302   -14.319    -0.017     (0)  
   Ferric(SulfateO4)2-   3.583e-19   3.444e-19   -18.446   -18.463    -0.017     (0)  
   FerricHSulfateO4+2   1.685e-21   1.438e-21   -20.773   -20.842    -0.069     (0)  
Sulfide       1.000e-07
   HSulfide-       5.154e-08   4.952e-08    -7.288    -7.305    -0.017     (0)  
   H2Sulfide       4.847e-08   4.848e-08    -7.315    -7.314     0.000     (0)  
   Sulfide-2       6.251e-14   5.342e-14   -13.204   -13.272    -0.068     (0)  
Threonine     5.200e-05
   Threonine-2     5.200e-05   4.436e-05    -4.284    -4.353    -0.069     (0)  
   H2(Threonine)   7.330e-10   7.332e-10    -9.135    -9.135     0.000     (0)  
   H(Threonine)-   7.301e-10   7.016e-10    -9.137    -9.154    -0.017     (0)  
Tyrosine      5.200e-05
   Tyrosine-2      5.200e-05   4.436e-05    -4.284    -4.353    -0.069     (0)  
   H(Tyrosine)-    8.191e-10   7.872e-10    -9.087    -9.104    -0.017     (0)  
   H2(Tyrosine)    7.163e-10   7.165e-10    -9.145    -9.145     0.000     (0)  

------------------------------Saturation indices-------------------------------

  Phase               SI** log IAP   log K(298 K,   1 atm)

  FixpH            -6.95     -6.95    0.00  H+
  H2(g)           -21.90    -25.05   -3.15  H2
  H2O(g)           -1.51     -0.00    1.51  H2O
  Halite           -9.44     -7.85    1.58  NaCl
  Hydroxyapatite   -5.22     -8.65   -3.42  Ca5(PO4)3OH
  ORM             829.47    -49.76 -879.23  C5H4O2Amm
  redoxAnhydrite   -4.93     -9.29   -4.36  CaSulfateO4
  redoxAragonite   -4.01    -12.34   -8.34  CaCO3
  redoxCalcite     -3.86    -12.34   -8.48  CaCO3
  redoxCH4(g)      -3.14     -6.00   -2.86  MethaneH4
  redoxCO2(g)      -4.29     -5.76   -1.47  CO2
  redoxDolomite    -7.96    -25.05  -17.09  CaMg(CO3)2
  redoxFe(OH)3(a)   3.09      7.98    4.89  Ferric(OH)3
  redoxGoethite     8.98      7.98   -1.00  FerricOOH
  redoxGypsum      -4.71     -9.29   -4.58  CaSulfateO4:2H2O
  redoxH2S(g)      -6.32     -7.31   -1.00  H2Sulfide
  redoxHematite    19.96     15.95   -4.01  Ferric2O3
  redoxJarosite-K  -3.25    -12.46   -9.21  KFerric3(SulfateO4)2(OH)6
  redoxNH3(g)      -8.50     -6.73    1.77  AmmH3
  redoxO2(g)       -0.70     -3.59   -2.89  Ozero2
  redoxSulfur       9.71     14.59    4.88  Sulfide

**For a gas, SI = log10(fugacity). Fugacity = pressure * phi / 1 atm.
  For ideal gases, phi = 1.

------------------
End of simulation.
------------------

------------------------------------
Reading input data for simulation 2.
------------------------------------

	GAS_PHASE 1 fixed volume gas phase
	  fixed_volume
	  volume	   0.9  #(L)  calculate air pore space
	  temperature 	 25.0
	  redoxO2(g)   0.2
	  redoxCH4(g)  0.0
	  redoxCO2(g)  0.000316
	  SAVE GAS_PHASE 1
	END
------------------
End of simulation.
------------------

------------------------------------
Reading input data for simulation 3.
------------------------------------

	USE SOLUTION 1
	USE GAS_PHASE 1
	EXCHANGE_SPECIES
	 X- = X-
	 log_k 0     #semicolon is logical end of line
	 X- + AmmH4+ = AmmH4X
	  log_k  0.25   #define the half-reactions of ion change
	 2X- + Ca+2  = CaX2
	    log_k  0.4    $logK's relative 
	 2X- + Mg+2  = MgX2
	    log_k  0.5
	 X- + Na+  = NaX
	      log_k  0.0
	 X- + K+  = KX
	       log_k  0.2
	EXCHANGE 1   #exchanger in equilibirium 
	  X         16  #exchanger amount in mol
	  equilibrate with solution 1
	  exchange_gammas   true
	EQUILIBRIUM_PHASES 1
	  redoxCalcite      0  0.001     #CaCo3
	  redoxFeS(ppt)     0  0.001     #FeS
	  Hydroxyapatite    0  0.001     #Ca5(PO4)3OH
	  redoxPyrite       0  0.001     #FeS2
	  redoxFe(OH)3(a)   0  2   
	SURFACE 1
	 Hfo_wOH 2e-4  600  280  #site density (per nm2), SSA (m2/g), gram
	 Hfo_sOH 5e-6
	donnan 1e-8   #defuse layer thickness
	  H_a   3.837E-02  3.417E+04     80  ##gram of SOM for exchange
	  H_b   3.837E-02
	 H_c   3.837E-02
	 H_d  3.837E-02
	  H_e   1.919E-02
	 H_f   1.919E-02
	 H_g  1.919E-02
	 H_h  1.919E-02
	  H_ab  6.378E-02
	 H_ad  6.378E-02
	 H_af  6.378E-02
	 H_ah  6.378E-02
	  H_bc  6.378E-02
	 H_be  6.378E-02
	 H_bg  6.378E-05
	 H_cd  6.378E-05
	  H_cf  6.378E-02
	 H_ch  6.378E-02
	 H_de  6.378E-05
	 H_dg  6.378E-05
	 equilibrate with solution 1
	USE SOLUTION 1
	KINETICS  Decomposition  ##in mgC per g soil, redox reaction stoichiometry based on per biomassC
	cvode
	BA
	   m0   0.52
	   formula CH2O 0.0  
	   parms 1.04 0.25 0.001 0.4 0.02  #parm(1)=Vd, parm(2)=Kd, parm(3)=PEP, parm(4)=CUE, parm(5)=kb
	OAC
	   m0  0.001
	   formula CH2O 0.0   
	   parms  0.2  0.25
	Aero
	   formula CH2O 0.0   Ozero2  1.44   HCO3 -1.44  #C 2.44
	   parms  4   0.02  0.02   #Vmax, Koc, Ko2
	SulR
	   formula CH2O 0.0   SulfateO4-2  4.5   HSulfide-  -4.5  HCO3 -9    #C 10
	   parms  0.4   0.3   1   #Vmax, Koc, Kso4
	Meth
	   formula CH2O 0.0     MethaneH4 -20.24  HCO3 20.24   #C 41.48
	   parms  0.25   0.6  0.1   #Vmax, Koc, KI_O2
	POM
	   m0   4.71
	   formula CH2O 0.0  
	   parms 33.8  50  0  0.5   #vp1, kp1, Ip1, gD-fraction of dead BA to D
	MOM
	   m0   15.9
	   formula CH2O 0.0
	   parms 0.2  250 0.5   #vm, km, fD- fraction of decomposed p1/p2 to D
	DOM
	   m0   0.48
	   formula CH2O 0.0
	   parms  0.5  0.25  0
	QOM
	   m0   1.767
	   formula CH2O 0.0
	   parms 0.006 0.5  0.001   #adsorption constant, Qmax, desorption constant
	EP
	   m0   0.052
	   formula CH2O 0.0
	   parms  0.001
	EM
	   m0   0.052
	   formula CH2O 0.0
	   parms  0.001
	respiration
	   m0   0
	   formula CH2O 0.0 
	   parms  0.4
	Tot
	   m0   23.484
	   formula CH2O 0.0
	Salt  ##saltwater ion stoichiometry
	   m0   0.001
	   formula  CH2O 0.0   Cl-  -24  Sulfate  -3   Na+  -25   K+  -1    Ca+2  -2  Mg+2  -4   HCO3  -3  Nitrate -5 
	   parms 0.01  ## mol per gram soil per day
	Caero
	   m0   0
	   formula CH2O 0.0
	Csulr
	   m0   0
	   formula CH2O 0.0
	Cmeth
	   m0   0
	   formula CH2O 0.0
	   steps 100 in 100 steps #day
	  INCREMENTAL_REACTIONS true
	RATES
	BA
	   start
	    10 mDOM= kin("DOM")*0.8
	    20 bio = kin("BA")
	    30 uptake= parm(1)* bio * mDOM/(parm(2)+mDOM)   #parm(1)=Vd, parm(2)=Kd
	    40 put(uptake, 1) #microbil uptake flux                                      
	    50 decay=(1-parm(3)*2)*bio*parm(5)     #parm(3)=pEP=pEM (exoemzyme production rate); 0.1*Vd=biomass decay rate
	    60 put(decay, 2)                                           ##maintenance respiration
	    70 pexo = parm(3)*bio   #exoenzyme production enzyme production rate=0.1*Vd
	    80 put(pexo, 3)                                             ##mortality
	    90 rate = get(1)*parm(4)-get(2)-get(3)-get(3)+get(11)*get(11)/(get(11)+get(12)+get(13))+get(12)*get(12)/(get(11)+get(12)+get(13))+get(13)*get(13)/(get(11)+get(12)+get(13)) #parm(4)=CUE
	    100 save -rate * time 
	   end
	OAC
	   start
	    10 mDOM= kin("DOM")
	    20 rate = parm(1)* mDOM+parm(2)* get(2)-get(11)*2.44*get(11)/(get(11)+get(12)+get(13))-get(12)*10*get(12)/(get(11)+get(12)+get(13))-get(13)*41.48*get(13)/(get(11)+get(12)+get(13))  #C stoichiometry for redox reactions
	    30 put(rate, 14)
	    100 save -rate * time 
	   end
	Aero
	  start
	   10 mDOM= kin("OAC")/12
	   20 bio = kin("BA")/12
	   30 DO= mol("Ozero2")*1000
	   40 donor = mDOM/(parm(2)+mDOM)
	   50 accp = DO/(parm(3)+DO)
	   60 rate = parm(1)* bio * donor * accp
	   70 put(rate, 11)
	   80 final = rate*get(11)/(get(11)+get(12)+get(13))
	  100 save -final* time
	  end
	SulR
	  start
	   10 mDOM= kin("OAC")/12
	   20 bio = 0.6*kin("BA")/12
	   30 DO = mol("Ozero2")*1000
	   40 SO = mol("SulfateO4-2")*1000
	   50 donor = mDOM/(parm(2)+mDOM)
	   60 acc = SO/(parm(3)+SO)
	   70 rate = parm(1)* bio * donor * acc
	   80 put(rate, 12)
	   90 final = rate*get (12)/(get(11)+get(12)+get(13))
	  100 save -final * time
	  end
	Meth
	  start
	   10 mDOM= kin("OAC")/12
	   11 if(kin("OAC")<= 0.15) then mDOM=0
	   20 bio = 0.2*kin("BA")/12
	   30 DO = mol("Ozero2")*1000
	   50 donor = mDOM/(parm(2)+mDOM)
	   60 inhib = parm(3)/(DO+parm(3))
	   70 rate =  parm(1)* bio * donor 
	   80 put(rate, 13)
	   90 final = rate*get (13)/(get(11)+get(12)+get(13))
	  100 save -final * time
	  end
	POM
	   start
	    10 mPOM = kin("POM")
	    20 ep = kin("EP")
	    30 deco = parm(1) * ep * mPOM/(parm(2)+mPOM) # parm(1)=Vp, parm(2)=Kp
	    40 put (deco, 4)  #POM decomposition
	    50 rate = (1-parm(4))*get(2)-get(4)  #parm(3)=input, parm(4)=gD, fraction of decayed biomass C going to DOM pool
	    100 save -rate * time
	   end
	MOM
	   start
	    10 mMOM = kin("MOM")
	    20 em = kin("EM")
	    30 flux = parm(1) * em * mMOM /(parm(2)+ mMOM) # parm(1)=VM, parm(2)=KM
	    40 put(flux,5)  #MOM decomposition flux
	    50 rate = (1-parm(3))*get(4)-get(5)  #parm(3)=fD_fraction of decomposed P to D
	    100 save -rate*time
	   end
	DOM
	   start
	    10 rate = (1-parm(1))*get(4)+parm(2)* get(2)+get(5)+(get(8)+get(9))-get(1)-(get(6)-get(7))-get(14)
	    100 save -rate* time
	   end
	QOM
	   start
	    10 mQOM = kin("QOM")
	    20 D = kin("DOM")
	    30 flux1 = parm(1) * (1-mQOM/parm(2))* D #adsorption flux, parm(1)=adsorption constant, parm(2)=Qmax
	    40 put(flux1,6)  #adsorption flux
	    50 flux2 = parm(3) * (mQOM/parm(2)) #parm(3)=desorption constant, parm(2)=Qmax
	    60 put(flux2,7)  #desorption flux
	    70 rate = get(6)-get(7)
	    100 save -rate * time
	   end
	EP
	   start
	    10 ep = kin("EP")
	    20 flux1 = parm(1)*ep #enzyme decay
	    30 put (flux1,8)
	    40 rate = get(3)-get(8)
	    100 save -rate * time
	   end
	EM
	   start
	    10 em = kin("EM")
	    20 flux1= parm(1)* em
	    30 put (flux1,9)
	    40 rate = get(3)-get(9)
	    100  save -rate * time
	   end
	respiration
	   start
	    10 rate = (1- parm(1))*get(1)+(get(11)*1.44*get(11)/(get(11)+get(12)+get(13))+get(12)*9*get(12)/(get(11)+get(12)+get(13))-get(13)*20.24*get(13)/(get(11)+get(12)+get(13)))*12 #parm(1)=CUE
	    20 put (rate, 10)
	    30 save -rate * time
	   end
	Tot
	   start
	    10 rate = -get(10)-(GAS('redoxCH4(g)')+tot('CH4'))*12
	    20 save -rate * time
	   end
	Salt
	   start
	    10 salt=kin("salt")
	    20 rate = parm(1)*(0.10-salt)   ## The incoming concentration is important
	    30 save -rate * time
	   end
	Caero
	   start
	    10 rate = get(11)*2.44
	    30 save -rate * time
	   end
	Csulr
	   start
	    10 rate = get(12)*10
	    30 save -rate * time
	   end
	Cmeth
	   start
	    10 rate = get(13)*41.48
	    30 save -rate * time
	   end
	SELECTED_OUTPUT
	  reset false
	  file closed_redox_sw3.txt
	USER_PUNCH
	  start
	  heading Time pH  Ozero HS CH4 CO2g CO2 SC  fsl1  fsl2  fsl3  fsl4 POM MOM QOM DOM BA EP EM IC Total OrgAcid Aero SulR Meth Caero Csulr Cmeth Na  K  Ca  Mg  PO4  Cl  SO4 NH4 HCO3 FeS Pyrite 
	  10 PUNCH SIM_TIME
	  20 PUNCH -la("H+")
	  30 PUNCH mol("Ozero2")  tot('Sulfide')
	  40 PUNCH GAS('redoxCH4(g)')+tot('CH4')  GAS('redoxCO2(g)')  tot('C(4)')
	  50 PUNCH CALC_VALUE ("SC_T25")
	  60 PUNCH CALC_VALUE("fsl1")  CALC_VALUE("fsl2")  CALC_VALUE("fsl3")  CALC_VALUE("fsl4")
	  70 PUNCH kin('POM') kin('MOM') kin('QOM') kin('DOM') kin('BA') kin('EP') kin('EM') 
	  80 PUNCH kin('respiration') kin("Tot") kin('OAC') kin('Aero')  kin('SulR')  kin('Meth')
	  90 PUNCH kin('Caero') kin('Csulr') kin('Cmeth')
	  100 PUNCH tot("Na")  tot("K")  mol("Ca+2")  tot("Mg") tot("P")  tot("Cl")  tot("Sulfate") tot ("Amm")  tot("C(4)")
	  110 PUNCH equi("redoxFeS(ppt)")  equi("redoxPyrite")
	  end
	END
-------------------------------------------------------
Beginning of initial exchange-composition calculations.
-------------------------------------------------------

Exchange 1.	

X                1.600e+01 mol

	                               Equiv-    Equivalent      Log 
	Species             Moles      alents      Fraction     Gamma

	CaX2              5.136e+00   1.027e+01   6.421e-01     0.000
	MgX2              2.793e+00   5.586e+00   3.491e-01     0.000
	NaX               7.092e-02   7.092e-02   4.433e-03     0.000
	AmmH4X            4.180e-02   4.180e-02   2.612e-03     0.000
	KX                2.760e-02   2.760e-02   1.725e-03     0.000
	HX                7.524e-04   7.524e-04   4.703e-05    -0.016

------------------------------------------------------
Beginning of initial surface-composition calculations.
------------------------------------------------------

Surface 1.	

Diffuse Double Layer Surface-Complexation Model

H             
	  1.144e-09  Surface + diffuse layer charge, eq
	 -5.139e-01  Surface charge, eq
	 -1.814e-02  sigma, C/m²
	 -1.120e-01  psi, V
	  4.360e+00  -F*psi/RT
	  7.824e+01  exp(-F*psi/RT)
	  3.417e+04  specific area, m²/g
	  2.734e+06  m² for   8.000e+01 g

	Water in diffuse layer: 2.734e+01 kg, 94.2% of total DDL-water.

	Total moles in diffuse layer (excluding water), Donnan calculation.
	Donnan Layer potential, psi_DL = -4.521e-02 V.
	Boltzmann factor, exp(-psi_DL * F / RT) = 5.811e+00 (= c_DL / c_free if z is +1).

	Element       	     Moles
	Alanine       	  4.2219e-05
	Amm           	  6.0117e-03
	C             	  8.5044e-05
	Ca            	  1.6867e-01
	Cl            	  6.2575e-04
	Cysteine      	  4.2994e-05
	Ferric        	  4.4787e-03
	Glutamine     	  4.2128e-05
	Glycine       	  2.4508e-04
	H             	  3.3920e-02
	K             	  4.4476e-03
	Methane       	  2.7338e-05
	Mg            	  7.2787e-02
	Na            	  1.8108e-02
	O             	  9.9991e-03
	Ozero         	  1.3973e-02
	P             	  2.3987e-05
	Sulfate       	  7.3458e-06
	Sulfide       	  1.5674e-06
	Threonine     	  4.2127e-05
	Tyrosine      	  4.2127e-05

H_a           
	  3.837e-02  moles
	                                   Mole                     Log
	Species               Moles    Fraction    Molality    Molality

	H_a-              3.718e-02       0.969   1.971e-02      -1.705
	H_aCa+            8.730e-04       0.023   4.626e-04      -3.335
	H_aMg+            2.995e-04       0.008   1.587e-04      -3.799
	H_aH              1.267e-05       0.000   6.716e-06      -5.173

H_ab          
	  6.378e-02  moles
	                                   Mole                     Log
	Species               Moles    Fraction    Molality    Molality

	H_ab-2            6.291e-02       0.986   3.334e-02      -1.477
	H_abCa            4.670e-04       0.007   2.475e-04      -3.606
	H_abH-            2.762e-04       0.004   1.464e-04      -3.835
	H_abMg            1.273e-04       0.002   6.745e-05      -4.171
	H_abH2            9.414e-08       0.000   4.989e-08      -7.302

H_ad          
	  6.378e-02  moles
	                                   Mole                     Log
	Species               Moles    Fraction    Molality    Molality

	H_adCa            2.400e-02       0.376   1.272e-02      -1.896
	H_ad-2            1.904e-02       0.298   1.009e-02      -1.996
	H_adH-            1.419e-02       0.223   7.522e-03      -2.124
	H_adMg            6.541e-03       0.103   3.467e-03      -2.460
	H_adH2            4.838e-06       0.000   2.564e-06      -5.591

H_af          
	  6.378e-02  moles
	                                   Mole                     Log
	Species               Moles    Fraction    Molality    Molality

	H_afH-            5.540e-02       0.869   2.936e-02      -1.532
	H_afCa            8.348e-03       0.131   4.424e-03      -2.354
	H_afH2            1.888e-05       0.000   1.001e-05      -5.000
	H_af-2            1.205e-05       0.000   6.385e-06      -5.195
	H_afMg            3.864e-06       0.000   2.048e-06      -5.689

H_ah          
	  6.378e-02  moles
	                                   Mole                     Log
	Species               Moles    Fraction    Molality    Molality

	H_ahH-            6.374e-02       0.999   3.378e-02      -1.471
	H_ahH2            2.172e-05       0.000   1.151e-05      -4.939
	H_ahCa            1.708e-05       0.000   9.052e-06      -5.043
	H_ahMg            4.446e-06       0.000   2.356e-06      -5.628
	H_ah-2            2.896e-09       0.000   1.535e-09      -8.814

H_b           
	  3.837e-02  moles
	                                   Mole                     Log
	Species               Moles    Fraction    Molality    Molality

	H_b-              2.720e-02       0.709   1.441e-02      -1.841
	H_bCa+            8.227e-03       0.214   4.360e-03      -2.361
	H_bMg+            2.823e-03       0.074   1.496e-03      -2.825
	H_bH              1.194e-04       0.003   6.329e-05      -4.199

H_bc          
	  6.378e-02  moles
	                                   Mole                     Log
	Species               Moles    Fraction    Molality    Molality

	H_bcCa            3.020e-02       0.474   1.601e-02      -1.796
	H_bc-2            2.395e-02       0.376   1.269e-02      -1.896
	H_bcMg            8.231e-03       0.129   4.362e-03      -2.360
	H_bcH-            1.386e-03       0.022   7.348e-04      -3.134
	H_bcH2            6.088e-06       0.000   3.226e-06      -5.491

H_be          
	  6.378e-02  moles
	                                   Mole                     Log
	Species               Moles    Fraction    Molality    Molality

	H_beH-            6.230e-02       0.977   3.301e-02      -1.481
	H_be-2            9.374e-04       0.015   4.968e-04      -3.304
	H_beH2            2.735e-04       0.004   1.450e-04      -3.839
	H_beCa            2.151e-04       0.003   1.140e-04      -3.943
	H_beMg            5.598e-05       0.001   2.966e-05      -4.528

H_bg          
	  6.378e-05  moles
	                                   Mole                     Log
	Species               Moles    Fraction    Molality    Molality

	H_bgH-            6.323e-05       0.991   3.351e-05      -4.475
	H_bgH2            2.776e-07       0.004   1.471e-07      -6.832
	H_bgCa            2.183e-07       0.003   1.157e-07      -6.937
	H_bgMg            5.681e-08       0.001   3.011e-08      -7.521
	H_bg-2            1.988e-10       0.000   1.053e-10      -9.977

H_c           
	  3.837e-02  moles
	                                   Mole                     Log
	Species               Moles    Fraction    Molality    Molality

	H_cCa+            2.386e-02       0.622   1.264e-02      -1.898
	H_cMg+            8.185e-03       0.213   4.337e-03      -2.363
	H_c-              5.983e-03       0.156   3.171e-03      -2.499
	H_cH              3.463e-04       0.009   1.835e-04      -3.736

H_cd          
	  6.378e-05  moles
	                                   Mole                     Log
	Species               Moles    Fraction    Molality    Molality

	H_cdCa            4.979e-05       0.781   2.639e-05      -4.579
	H_cdMg            1.357e-05       0.213   7.192e-06      -5.143
	H_cd-2            2.326e-07       0.004   1.232e-07      -6.909
	H_cdH-            1.734e-07       0.003   9.189e-08      -7.037
	H_cdH2            1.004e-08       0.000   5.319e-09      -8.274

H_cf          
	  6.378e-02  moles
	                                   Mole                     Log
	Species               Moles    Fraction    Molality    Molality

	H_cfH-            5.718e-02       0.896   3.030e-02      -1.519
	H_cfH2            3.309e-03       0.052   1.754e-03      -2.756
	H_cfCa            2.602e-03       0.041   1.379e-03      -2.860
	H_cfMg            6.773e-04       0.011   3.589e-04      -3.445
	H_cf-2            1.244e-05       0.000   6.591e-06      -5.181

H_ch          
	  6.378e-02  moles
	                                   Mole                     Log
	Species               Moles    Fraction    Molality    Molality

	H_chH-            5.719e-02       0.897   3.031e-02      -1.518
	H_chH2            3.310e-03       0.052   1.754e-03      -2.756
	H_chCa            2.603e-03       0.041   1.379e-03      -2.860
	H_chMg            6.774e-04       0.011   3.590e-04      -3.445
	H_ch-2            2.599e-09       0.000   1.377e-09      -8.861

H_d           
	  3.837e-02  moles
	                                   Mole                     Log
	Species               Moles    Fraction    Molality    Molality

	H_dCa+            2.786e-02       0.726   1.477e-02      -1.831
	H_dMg+            9.560e-03       0.249   5.066e-03      -2.295
	H_d-              5.425e-04       0.014   2.875e-04      -3.541
	H_dH              4.045e-04       0.011   2.144e-04      -3.669

H_de          
	  6.378e-05  moles
	                                   Mole                     Log
	Species               Moles    Fraction    Molality    Molality

	H_deH-            2.552e-05       0.400   1.352e-05      -4.869
	H_deH2            1.903e-05       0.298   1.008e-05      -4.996
	H_deCa            1.496e-05       0.235   7.928e-06      -5.101
	H_deMg            3.894e-06       0.061   2.063e-06      -5.685
	H_de-2            3.840e-07       0.006   2.035e-07      -6.691

H_dg          
	  6.378e-05  moles
	                                   Mole                     Log
	Species               Moles    Fraction    Molality    Molality

	H_dgH-            2.567e-05       0.402   1.360e-05      -4.866
	H_dgH2            1.914e-05       0.300   1.014e-05      -4.994
	H_dgCa            1.505e-05       0.236   7.976e-06      -5.098
	H_dgMg            3.917e-06       0.061   2.076e-06      -5.683
	H_dg-2            8.071e-11       0.000   4.277e-11     -10.369

H_e           
	  1.919e-02  moles
	                                   Mole                     Log
	Species               Moles    Fraction    Molality    Molality

	H_eH              1.863e-02       0.971   9.875e-03      -2.005
	H_e-              2.804e-04       0.015   1.486e-04      -3.828
	H_eCa+            2.082e-04       0.011   1.103e-04      -3.957
	H_eMg+            6.666e-05       0.003   3.533e-05      -4.452

H_f           
	  1.919e-02  moles
	                                   Mole                     Log
	Species               Moles    Fraction    Molality    Molality

	H_fH              1.891e-02       0.985   1.002e-02      -1.999
	H_fCa+            2.112e-04       0.011   1.119e-04      -3.951
	H_fMg+            6.763e-05       0.004   3.584e-05      -4.446
	H_f-              4.112e-06       0.000   2.179e-06      -5.662

H_g           
	  1.919e-02  moles
	                                   Mole                     Log
	Species               Moles    Fraction    Molality    Molality

	H_gH              1.891e-02       0.985   1.002e-02      -1.999
	H_gCa+            2.113e-04       0.011   1.120e-04      -3.951
	H_gMg+            6.765e-05       0.004   3.585e-05      -4.446
	H_g-              5.945e-08       0.000   3.151e-08      -7.502

H_h           
	  1.919e-02  moles
	                                   Mole                     Log
	Species               Moles    Fraction    Molality    Molality

	H_hH              1.891e-02       0.985   1.002e-02      -1.999
	H_hCa+            2.113e-04       0.011   1.120e-04      -3.951
	H_hMg+            6.765e-05       0.004   3.585e-05      -4.446
	H_h-              8.594e-10       0.000   4.554e-10      -9.342

Hfo           
	 -9.038e-14  Surface + diffuse layer charge, eq
	 -7.866e-06  Surface charge, eq
	 -4.518e-06  sigma, C/m²
	 -5.587e-05  psi, V
	  2.175e-03  -F*psi/RT
	  1.002e+00  exp(-F*psi/RT)
	  6.000e+02  specific area, m²/g
	  1.680e+05  m² for   2.800e+02 g

	Water in diffuse layer: 1.680e+00 kg,  5.8% of total DDL-water.

	Total moles in diffuse layer (excluding water), Donnan calculation.
	Donnan Layer potential, psi_DL = -4.796e-05 V.
	Boltzmann factor, exp(-psi_DL * F / RT) = 1.002e+00 (= c_DL / c_free if z is +1).

	Element       	     Moles
	Alanine       	  8.7041e-05
	Amm           	  6.3963e-05
	C             	  1.5098e-05
	Ca            	  3.0861e-04
	Cl            	  2.2304e-04
	Cysteine      	  8.7041e-05
	Ferric        	  8.4079e-05
	Glutamine     	  8.7041e-05
	Glycine       	  8.7203e-05
	H             	  5.0128e-04
	K             	  4.7131e-05
	Methane       	  1.6801e-06
	Mg            	  1.3322e-04
	Na            	  1.9189e-04
	O             	  3.1561e-04
	Ozero         	  8.5873e-04
	P             	  8.3800e-06
	Sulfate       	  6.6964e-06
	Sulfide       	  1.6785e-07
	Threonine     	  8.7041e-05
	Tyrosine      	  8.7041e-05

Hfo_s         
	  5.000e-06  moles
	                                   Mole                     Log
	Species               Moles    Fraction    Molality    Molality

	Hfo_sOHCa+2       4.104e-06       0.821   2.175e-06      -5.663
	Hfo_sOH2+         6.131e-07       0.123   3.249e-07      -6.488
	Hfo_sOH           2.802e-07       0.056   1.485e-07      -6.828
	Hfo_sO-           2.934e-09       0.001   1.555e-09      -8.808

Hfo_w         
	  2.000e-04  moles
	                                   Mole                     Log
	Species               Moles    Fraction    Molality    Molality

	Hfo_wOH2+         7.692e-05       0.385   4.076e-05      -4.390
	Hfo_wHPO4-        6.795e-05       0.340   3.601e-05      -4.444
	Hfo_wOH           3.516e-05       0.176   1.863e-05      -4.730
	Hfo_wPO4-2        1.295e-05       0.065   6.861e-06      -5.164
	Hfo_wH2PO4        6.056e-06       0.030   3.209e-06      -5.494
	Hfo_wOMg+         5.334e-07       0.003   2.827e-07      -6.549
	Hfo_wO-           3.681e-07       0.002   1.951e-07      -6.710
	Hfo_wOCa+         6.945e-08       0.000   3.680e-08      -7.434
	Hfo_wSulfateO4-   7.769e-10       0.000   4.117e-10      -9.385
	Hfo_wOHSulfateO4-2   7.085e-10       0.000   3.755e-10      -9.425

-----------------------------------------
Beginning of batch-reaction calculations.
-----------------------------------------

Reaction step 1.

WARNING: Zero divide in BASIC line
 90  rate = get(1)*parm(4)-get(2)-get(3)-get(3)+get(11)*get(11)/(get(11)+get(12)+get(13))+get(12)*get(12)/(get(11)+get(12)+get(13))+get(13)*get(13)/(get(11)+get(12)+get(13)).
Value set to zero.
WARNING: Zero divide in BASIC line
 90  rate = get(1)*parm(4)-get(2)-get(3)-get(3)+get(11)*get(11)/(get(11)+get(12)+get(13))+get(12)*get(12)/(get(11)+get(12)+get(13))+get(13)*get(13)/(get(11)+get(12)+get(13)).
Value set to zero.
WARNING: Zero divide in BASIC line
 90  rate = get(1)*parm(4)-get(2)-get(3)-get(3)+get(11)*get(11)/(get(11)+get(12)+get(13))+get(12)*get(12)/(get(11)+get(12)+get(13))+get(13)*get(13)/(get(11)+get(12)+get(13)).
Value set to zero.
WARNING: Zero divide in BASIC line
 20  rate = parm(1)* mDOM+parm(2)* get(2)-get(11)*2.44*get(11)/(get(11)+get(12)+get(13))-get(12)*10*get(12)/(get(11)+get(12)+get(13))-get(13)*41.48*get(13)/(get(11)+get(12)+get(13)).
Value set to zero.
WARNING: Zero divide in BASIC line
 20  rate = parm(1)* mDOM+parm(2)* get(2)-get(11)*2.44*get(11)/(get(11)+get(12)+get(13))-get(12)*10*get(12)/(get(11)+get(12)+get(13))-get(13)*41.48*get(13)/(get(11)+get(12)+get(13)).
Value set to zero.
WARNING: Zero divide in BASIC line
 20  rate = parm(1)* mDOM+parm(2)* get(2)-get(11)*2.44*get(11)/(get(11)+get(12)+get(13))-get(12)*10*get(12)/(get(11)+get(12)+get(13))-get(13)*41.48*get(13)/(get(11)+get(12)+get(13)).
Value set to zero.
WARNING: CVode incomplete at cvode_steps 100. Cell: 0	Time: 8.204631e-01	Cvode calls: 1, continuing...

Using solution 1.	
Using exchange 1.	Exchange assemblage after simulation 3.
Using surface 1.	
Using pure phase assemblage 1.	
Using gas phase 1.	fixed volume gas phase
Using kinetics 1.	Decomposition  

Kinetics 1.	Decomposition  

	Time step: 1 seconds  (Incremented time: 1 seconds)

	Rate name       Delta Moles Total Moles   Reactant        Coefficient

	BA                1.216e-01   6.416e-01   CH2O                      0
	OAC               4.487e-02   4.587e-02   CH2O                      0
	Aero              1.059e-02   1.011e+00   CH2O                      0
	                                          HCO3                  -1.44
	                                          Ozero2                 1.44
	SulR              8.391e-07   1.000e+00   CH2O                      0
	                                          HCO3                     -9
	                                          HSulfide-              -4.5
	                                          SulfateO4-2             4.5
	Meth             -0.000e+00   1.000e+00   CH2O                      0
	                                          HCO3                  20.24
	                                          MethaneH4            -20.24
	POM              -1.441e-01   4.566e+00   CH2O                      0
	MOM               7.433e-02   1.597e+01   CH2O                      0
	DOM              -2.671e-01   2.129e-01   CH2O                      0
	QOM              -8.663e-03   1.758e+00   CH2O                      0
	EP                5.309e-04   5.253e-02   CH2O                      0
	EM                5.309e-04   5.253e-02   CH2O                      0
	respiration       3.688e-01   3.688e-01   CH2O                      0
	Tot              -3.690e-01   2.311e+01   CH2O                      0
	Salt              9.851e-04   1.985e-03   CH2O                      0
	                                          Ca+2                     -2
	                                          Cl-                     -24
	                                          HCO3                     -3
	                                          K+                       -1
	                                          Mg+2                     -4
	                                          Na+                     -25
	                                          Nitrate                  -5
	                                          Sulfate                  -3
	Caero             2.588e-02   2.588e-02   CH2O                      0
	Csulr             1.230e-04   1.230e-04   CH2O                      0
	Cmeth            -0.000e+00   0.000e+00   CH2O                      0

-----------------------------------Gas phase-----------------------------------

Total pressure:  0.01      atmospheres 
    Gas volume:   9.00e-01 liters
  Molar volume:   2.49e+03 liters/mole

                                                        Moles in gas
                                            ----------------------------------
Component                log P           P     Initial       Final       Delta

redoxCH4(g)              -3.41   3.893e-04   0.000e+00   1.432e-05   1.432e-05
redoxCO2(g)              -2.03   9.441e-03   1.162e-05   3.473e-04   3.357e-04
redoxO2(g)               -4.95   1.129e-05   7.357e-03   4.155e-07  -7.357e-03

-------------------------------Phase assemblage--------------------------------

                                                      Moles in assemblage
Phase               SI  log IAP  log K(T, P)   Initial       Final       Delta

Hydroxyapatite    0.00    -3.42     -3.42    1.000e-03   3.780e-04  -6.220e-04
redoxCalcite     -1.61   -10.09     -8.48    1.000e-03           0  -1.000e-03
redoxFe(OH)3(a)    0.00     4.89      4.89    2.000e+00   2.005e+00   4.653e-03
redoxFeS(ppt)    -2.37    -6.29     -3.92    1.000e-03           0  -1.000e-03
redoxPyrite       0.00   -18.48    -18.48    1.000e-03   1.409e-03   4.092e-04

------------------------------Surface composition------------------------------

Diffuse Double Layer Surface-Complexation Model

H             
	 -2.260e-09  Surface + diffuse layer charge, eq
	 -5.834e-01  Surface charge, eq
	 -2.059e-02  sigma, C/m²
	 -8.165e-02  psi, V
	  3.178e+00  -F*psi/RT
	  2.400e+01  exp(-F*psi/RT)
	  3.417e+04  specific area, m²/g
	  2.734e+06  m² for   8.000e+01 g

	Water in diffuse layer: 2.734e+01 kg, 94.2% of total DDL-water.

	Total moles in diffuse layer (excluding water), Donnan calculation.
	Donnan Layer potential, psi_DL = -2.462e-02 V.
	Boltzmann factor, exp(-psi_DL * F / RT) = 2.607e+00 (= c_DL / c_free if z is +1).

	Element       	     Moles
	Alanine       	  1.2104e-04
	Amm           	  6.3019e-03
	C             	  1.5688e-02
	Ca            	  2.0442e-01
	Cl            	  1.8478e-02
	Cysteine      	  1.2227e-04
	Ferric        	  3.8980e-06
	Ferrous       	  1.5800e-05
	Glutamine     	  1.2089e-04
	Glycine       	  3.2159e-04
	H             	  6.9168e-02
	K             	  4.7929e-03
	Methane       	  1.4671e-05
	Mg            	  8.7963e-02
	Na            	  2.3989e-02
	Nitrate       	  3.6785e-03
	O             	  6.3029e-02
	Ozero         	  7.9012e-07
	P             	  1.4039e-03
	Sulfate       	  2.0199e-03
	Sulfide       	  1.6097e-04
	Threonine     	  1.2089e-04
	Tyrosine      	  1.2089e-04

H_a           
	  3.837e-02  moles
	                                   Mole                     Log
	Species               Moles    Fraction    Molality    Molality

	H_a-              3.779e-02       0.985   2.003e-02      -1.698
	H_aCa+            4.278e-04       0.011   2.267e-04      -3.644
	H_aMg+            1.466e-04       0.004   7.772e-05      -4.109
	H_aH              9.079e-06       0.000   4.812e-06      -5.318

H_ab          
	  6.378e-02  moles
	                                   Mole                     Log
	Species               Moles    Fraction    Molality    Molality

	H_ab-2            6.330e-02       0.992   3.355e-02      -1.474
	H_abCa            2.266e-04       0.004   1.201e-04      -3.920
	H_abH-            1.959e-04       0.003   1.038e-04      -3.984
	H_abMg            6.170e-05       0.001   3.270e-05      -4.485
	H_abH2            4.707e-08       0.000   2.495e-08      -7.603

H_ad          
	  6.378e-02  moles
	                                   Mole                     Log
	Species               Moles    Fraction    Molality    Molality

	H_ad-2            2.774e-02       0.435   1.470e-02      -1.833
	H_adCa            1.686e-02       0.264   8.939e-03      -2.049
	H_adH-            1.458e-02       0.229   7.728e-03      -2.112
	H_adMg            4.592e-03       0.072   2.434e-03      -2.614
	H_adH2            3.503e-06       0.000   1.857e-06      -5.731

H_af          
	  6.378e-02  moles
	                                   Mole                     Log
	Species               Moles    Fraction    Molality    Molality

	H_afH-            5.779e-02       0.906   3.063e-02      -1.514
	H_afCa            5.957e-03       0.093   3.157e-03      -2.501
	H_af-2            1.783e-05       0.000   9.451e-06      -5.025
	H_afH2            1.388e-05       0.000   7.359e-06      -5.133
	H_afMg            2.755e-06       0.000   1.460e-06      -5.836

H_ah          
	  6.378e-02  moles
	                                   Mole                     Log
	Species               Moles    Fraction    Molality    Molality

	H_ahH-            6.375e-02       1.000   3.379e-02      -1.471
	H_ahH2            1.532e-05       0.000   8.118e-06      -5.091
	H_ahCa            1.169e-05       0.000   6.194e-06      -5.208
	H_ahMg            3.039e-06       0.000   1.611e-06      -5.793
	H_ah-2            4.110e-09       0.000   2.178e-09      -8.662

H_b           
	  3.837e-02  moles
	                                   Mole                     Log
	Species               Moles    Fraction    Molality    Molality

	H_b-              3.200e-02       0.834   1.696e-02      -1.770
	H_bCa+            4.667e-03       0.122   2.474e-03      -2.607
	H_bMg+            1.600e-03       0.042   8.480e-04      -3.072
	H_bH              9.906e-05       0.003   5.250e-05      -4.280

H_bc          
	  6.378e-02  moles
	                                   Mole                     Log
	Species               Moles    Fraction    Molality    Molality

	H_bc-2            3.515e-02       0.551   1.863e-02      -1.730
	H_bcCa            2.137e-02       0.335   1.133e-02      -1.946
	H_bcMg            5.819e-03       0.091   3.084e-03      -2.511
	H_bcH-            1.434e-03       0.022   7.602e-04      -3.119
	H_bcH2            4.439e-06       0.000   2.353e-06      -5.628

H_be          
	  6.378e-02  moles
	                                   Mole                     Log
	Species               Moles    Fraction    Molality    Molality

	H_beH-            6.208e-02       0.973   3.290e-02      -1.483
	H_be-2            1.325e-03       0.021   7.024e-04      -3.153
	H_beH2            1.921e-04       0.003   1.018e-04      -3.992
	H_beCa            1.466e-04       0.002   7.770e-05      -4.110
	H_beMg            3.812e-05       0.001   2.021e-05      -4.695

H_bg          
	  6.378e-05  moles
	                                   Mole                     Log
	Species               Moles    Fraction    Molality    Molality

	H_bgH-            6.339e-05       0.994   3.360e-05      -4.474
	H_bgH2            1.962e-07       0.003   1.040e-07      -6.983
	H_bgCa            1.497e-07       0.002   7.935e-08      -7.100
	H_bgMg            3.893e-08       0.001   2.063e-08      -7.685
	H_bg-2            2.827e-10       0.000   1.499e-10      -9.824

H_c           
	  3.837e-02  moles
	                                   Mole                     Log
	Species               Moles    Fraction    Molality    Molality

	H_cCa+            2.036e-02       0.531   1.079e-02      -1.967
	H_c-              1.059e-02       0.276   5.615e-03      -2.251
	H_cMg+            6.981e-03       0.182   3.700e-03      -2.432
	H_cH              4.322e-04       0.011   2.291e-04      -3.640

H_cd          
	  6.378e-05  moles
	                                   Mole                     Log
	Species               Moles    Fraction    Molality    Molality

	H_cdCa            4.955e-05       0.777   2.626e-05      -4.581
	H_cdMg            1.349e-05       0.212   7.151e-06      -5.146
	H_cd-2            4.799e-07       0.008   2.544e-07      -6.595
	H_cdH-            2.522e-07       0.004   1.337e-07      -6.874
	H_cdH2            1.029e-08       0.000   5.455e-09      -8.263

H_cf          
	  6.378e-02  moles
	                                   Mole                     Log
	Species               Moles    Fraction    Molality    Molality

	H_cfH-            5.904e-02       0.926   3.129e-02      -1.505
	H_cfH2            2.409e-03       0.038   1.277e-03      -2.894
	H_cfCa            1.838e-03       0.029   9.741e-04      -3.011
	H_cfMg            4.779e-04       0.007   2.533e-04      -3.596
	H_cf-2            1.822e-05       0.000   9.655e-06      -5.015

H_ch          
	  6.378e-02  moles
	                                   Mole                     Log
	Species               Moles    Fraction    Molality    Molality

	H_chH-            5.905e-02       0.926   3.130e-02      -1.504
	H_chH2            2.410e-03       0.038   1.277e-03      -2.894
	H_chCa            1.838e-03       0.029   9.744e-04      -3.011
	H_chMg            4.780e-04       0.007   2.534e-04      -3.596
	H_ch-2            3.807e-09       0.000   2.018e-09      -8.695

H_d           
	  3.837e-02  moles
	                                   Mole                     Log
	Species               Moles    Fraction    Molality    Molality

	H_dCa+            2.732e-02       0.712   1.448e-02      -1.839
	H_dMg+            9.366e-03       0.244   4.964e-03      -2.304
	H_d-              1.103e-03       0.029   5.847e-04      -3.233
	H_dH              5.799e-04       0.015   3.073e-04      -3.512

H_de          
	  6.378e-05  moles
	                                   Mole                     Log
	Species               Moles    Fraction    Molality    Molality

	H_deH-            3.108e-05       0.487   1.647e-05      -4.783
	H_deH2            1.634e-05       0.256   8.658e-06      -5.063
	H_deCa            1.246e-05       0.195   6.606e-06      -5.180
	H_deMg            3.241e-06       0.051   1.718e-06      -5.765
	H_de-2            6.634e-07       0.010   3.516e-07      -6.454

H_dg          
	  6.378e-05  moles
	                                   Mole                     Log
	Species               Moles    Fraction    Molality    Molality

	H_dgH-            3.140e-05       0.492   1.665e-05      -4.779
	H_dgH2            1.651e-05       0.259   8.749e-06      -5.058
	H_dgCa            1.259e-05       0.197   6.675e-06      -5.176
	H_dgMg            3.275e-06       0.051   1.736e-06      -5.760
	H_dg-2            1.401e-10       0.000   7.424e-11     -10.129

H_e           
	  1.919e-02  moles
	                                   Mole                     Log
	Species               Moles    Fraction    Molality    Molality

	H_eH              1.861e-02       0.970   9.862e-03      -2.006
	H_e-              3.971e-04       0.021   2.105e-04      -3.677
	H_eCa+            1.422e-04       0.007   7.536e-05      -4.123
	H_eMg+            4.548e-05       0.002   2.411e-05      -4.618

H_f           
	  1.919e-02  moles
	                                   Mole                     Log
	Species               Moles    Fraction    Molality    Molality

	H_fH              1.899e-02       0.990   1.007e-02      -1.997
	H_fCa+            1.451e-04       0.008   7.693e-05      -4.114
	H_fMg+            4.643e-05       0.002   2.461e-05      -4.609
	H_f-              5.860e-06       0.000   3.106e-06      -5.508

H_g           
	  1.919e-02  moles
	                                   Mole                     Log
	Species               Moles    Fraction    Molality    Molality

	H_gH              1.900e-02       0.990   1.007e-02      -1.997
	H_gCa+            1.452e-04       0.008   7.695e-05      -4.114
	H_gMg+            4.644e-05       0.002   2.462e-05      -4.609
	H_g-              8.473e-08       0.000   4.491e-08      -7.348

H_h           
	  1.919e-02  moles
	                                   Mole                     Log
	Species               Moles    Fraction    Molality    Molality

	H_hH              1.900e-02       0.990   1.007e-02      -1.997
	H_hCa+            1.452e-04       0.008   7.695e-05      -4.114
	H_hMg+            4.644e-05       0.002   2.462e-05      -4.609
	H_h-              1.225e-09       0.000   6.491e-10      -9.188

Hfo           
	 -5.184e-13  Surface + diffuse layer charge, eq
	 -1.394e-04  Surface charge, eq
	 -8.005e-05  sigma, C/m²
	 -4.689e-04  psi, V
	  1.825e-02  -F*psi/RT
	  1.018e+00  exp(-F*psi/RT)
	  6.000e+02  specific area, m²/g
	  1.680e+05  m² for   2.800e+02 g

	Water in diffuse layer: 1.680e+00 kg,  5.8% of total DDL-water.

	Total moles in diffuse layer (excluding water), Donnan calculation.
	Donnan Layer potential, psi_DL = -1.901e-04 V.
	Boltzmann factor, exp(-psi_DL * F / RT) = 1.007e+00 (= c_DL / c_free if z is +1).

	Element       	     Moles
	Alanine       	  4.9702e-05
	Amm           	  1.5013e-04
	C             	  1.5555e-03
	Ca            	  1.9333e-03
	Cl            	  2.9386e-03
	Cysteine      	  4.9489e-05
	Ferric        	  1.1463e-07
	Ferrous       	  1.6043e-07
	Glutamine     	  4.9728e-05
	Glycine       	  5.1060e-05
	H             	  4.0725e-03
	K             	  1.1395e-04
	Methane       	  9.0162e-07
	Mg            	  8.3648e-04
	Na            	  5.7027e-04
	Nitrate       	  5.8499e-04
	O             	  8.4340e-03
	Ozero         	  4.8559e-08
	P             	  1.9188e-04
	Sulfate       	  4.4598e-04
	Sulfide       	  1.2346e-05
	Threonine     	  4.9728e-05
	Tyrosine      	  4.9728e-05

Hfo_s         
	  5.000e-06  moles
	                                   Mole                     Log
	Species               Moles    Fraction    Molality    Molality

	Hfo_sOHCa+2       4.633e-06       0.927   2.456e-06      -5.610
	Hfo_sOH2+         3.055e-07       0.061   1.619e-07      -6.791
	Hfo_sOH           5.978e-08       0.012   3.169e-08      -7.499
	Hfo_sOFerrous+    1.598e-09       0.000   8.471e-10      -9.072
	Hfo_sO-           2.680e-10       0.000   1.421e-10      -9.848

Hfo_w         
	  2.000e-04  moles
	                                   Mole                     Log
	Species               Moles    Fraction    Molality    Molality

	Hfo_wHPO4-        1.410e-04       0.705   7.476e-05      -4.126
	Hfo_wH2PO4        2.936e-05       0.147   1.556e-05      -4.808
	Hfo_wOH2+         1.502e-05       0.075   7.959e-06      -5.099
	Hfo_wPO4-2        1.151e-05       0.058   6.099e-06      -5.215
	Hfo_wOH           2.939e-06       0.015   1.558e-06      -5.808
	Hfo_wOMg+         1.009e-07       0.001   5.351e-08      -7.272
	Hfo_wO-           1.318e-08       0.000   6.984e-09      -8.156
	Hfo_wOCa+         1.315e-08       0.000   6.972e-09      -8.157
	Hfo_wSulfateO4-   7.463e-09       0.000   3.956e-09      -8.403
	Hfo_wOHSulfateO4-2   2.914e-09       0.000   1.545e-09      -8.811
	Hfo_wOFerrous+    7.332e-10       0.000   3.886e-10      -9.410
	Hfo_wOFerrousOH   7.530e-12       0.000   3.991e-12     -11.399

-----------------------------Exchange composition------------------------------

X                1.600e+01 mol

	                               Equiv-    Equivalent      Log 
	Species             Moles      alents      Fraction     Gamma

	CaX2              5.132e+00   1.026e+01   6.415e-01     0.000
	MgX2              2.788e+00   5.576e+00   3.485e-01     0.000
	NaX               8.887e-02   8.887e-02   5.554e-03     0.000
	AmmH4X            4.132e-02   4.132e-02   2.583e-03     0.000
	KX                2.810e-02   2.810e-02   1.756e-03     0.000
	HX                7.901e-04   7.901e-04   4.938e-05    -0.031
	FerrousX2         5.746e-04   1.149e-03   7.183e-05    -0.133

-----------------------------Solution composition------------------------------

	Elements           Molality       Moles

	Alanine           3.003e-05   5.665e-05
	Amm               8.871e-05   1.674e-04
	C                 9.303e-04   1.755e-03
	Ca                1.134e-03   2.140e-03
	Cl                1.762e-03   3.325e-03
	Cysteine          2.990e-05   5.640e-05
	Ferric            6.789e-08   1.281e-07
	Ferrous           9.423e-08   1.778e-07
	Glutamine         3.004e-05   5.668e-05
	Glycine           3.062e-05   5.777e-05
	K                 6.733e-05   1.270e-04
	Methane           5.367e-07   1.013e-06
	Mg                4.909e-04   9.261e-04
	Na                3.369e-04   6.357e-04
	Nitrate           3.508e-04   6.618e-04
	Ozero             2.890e-08   5.453e-08
	P                 1.151e-04   2.172e-04
	Sulfate           2.688e-04   5.072e-04
	Sulfide           7.366e-06   1.390e-05
	Threonine         3.004e-05   5.668e-05
	Tyrosine          3.004e-05   5.668e-05

----------------------------Description of solution----------------------------

                                       pH  =   6.590      Charge balance
                                       pe  =  -6.563      Adjusted to redox equilibrium
      Specific Conductance (µS/cm,  25°C)  = 401
                        Activity of water  =   1.000
                 Ionic strength (mol/kgw)  =   5.592e-03
                       Mass of water (kg)  =   1.887e+00
                 Total alkalinity (eq/kg)  =   8.282e-04
                       Total CO2 (mol/kg)  =   9.303e-04
                         Temperature (°C)  =  25.00
                           Pressure (atm)  =  0.01
                  Electrical balance (eq)  =   4.149e-09
 Percent error, 100*(Cat-|An|)/(Cat+|An|)  =   0.00
                               Iterations  = 818
                                  Total H  = 2.094460e+02
                                  Total O  = 1.047302e+02

----------------------------Distribution of species----------------------------

                                               Log       Log       Log    mole V
   Species          Molality    Activity  Molality  Activity     Gamma   cm³/mol

   H+              2.765e-07   2.573e-07    -6.558    -6.590    -0.031      0.00
   OH-             4.218e-08   3.890e-08    -7.375    -7.410    -0.035     (0)  
   H2O             5.551e+01   9.999e-01     1.744    -0.000     0.000     18.07
Alanine       3.003e-05
   Alanine-2       3.001e-05   2.182e-05    -4.523    -4.661    -0.139     (0)  
   H2(Alanine)     1.069e-08   1.071e-08    -7.971    -7.970     0.001     (0)  
   H(Alanine)-     1.361e-09   1.257e-09    -8.866    -8.901    -0.035     (0)  
Amm           8.871e-05
   AmmH4+          8.834e-05   8.132e-05    -4.054    -4.090    -0.036     (0)  
   AmmH4SulfateO4-   1.892e-07   1.747e-07    -6.723    -6.758    -0.035     (0)  
   AmmH3           1.799e-07   1.801e-07    -6.745    -6.744     0.001     (0)  
C(4)          9.303e-04
   HCO3-           6.003e-04   5.555e-04    -3.222    -3.255    -0.034     (0)  
   CO2             3.210e-04   3.214e-04    -3.494    -3.493     0.001     (0)  
   CaHCO3+         6.132e-06   5.674e-06    -5.212    -5.246    -0.034     (0)  
   MgHCO3+         2.432e-06   2.246e-06    -5.614    -5.649    -0.035     (0)  
   CO3-2           1.381e-07   1.012e-07    -6.860    -6.995    -0.135     (0)  
   CaCO3           1.360e-07   1.362e-07    -6.866    -6.866     0.001     (0)  
   NaHCO3          9.702e-08   9.715e-08    -7.013    -7.013     0.001     (0)  
   MgCO3           3.334e-08   3.338e-08    -7.477    -7.477     0.001     (0)  
   FerrousHCO3+    3.622e-09   3.344e-09    -8.441    -8.476    -0.035     (0)  
   NaCO3-          6.350e-10   5.863e-10    -9.197    -9.232    -0.035     (0)  
   FerrousCO3      1.460e-10   1.462e-10    -9.836    -9.835     0.001     (0)  
Ca            1.134e-03
   Ca+2            1.092e-03   8.006e-04    -2.962    -3.097    -0.135     (0)  
   CaSulfateO4     2.661e-05   2.664e-05    -4.575    -4.574     0.001     (0)  
   CaHPO4          7.524e-06   7.534e-06    -5.124    -5.123     0.001     (0)  
   CaHCO3+         6.132e-06   5.674e-06    -5.212    -5.246    -0.034     (0)  
   CaH2PO4+        1.578e-06   1.457e-06    -5.802    -5.837    -0.035     (0)  
   CaCO3           1.360e-07   1.362e-07    -6.866    -6.866     0.001     (0)  
   CaPO4-          7.502e-08   6.927e-08    -7.125    -7.159    -0.035     (0)  
   CaOH+           5.592e-10   5.163e-10    -9.252    -9.287    -0.035     (0)  
   CaHSulfateO4+   4.350e-11   4.016e-11   -10.362   -10.396    -0.035     (0)  
Cl            1.762e-03
   Cl-             1.762e-03   1.626e-03    -2.754    -2.789    -0.035     (0)  
   FerrousCl+      1.463e-10   1.351e-10    -9.835    -9.869    -0.035     (0)  
   FerricCl+2      8.955e-17   6.509e-17   -16.048   -16.186    -0.139     (0)  
   FerricCl2+      5.119e-19   4.726e-19   -18.291   -18.325    -0.035     (0)  
   FerricCl3       7.673e-23   7.683e-23   -22.115   -22.114     0.001     (0)  
Cysteine      2.990e-05
   Cysteine-2      2.981e-05   2.167e-05    -4.526    -4.664    -0.139     (0)  
   H2(Cysteine)    8.634e-08   8.645e-08    -7.064    -7.063     0.001     (0)  
   H(Cysteine)-    3.097e-10   2.859e-10    -9.509    -9.544    -0.035     (0)  
Ferric        6.789e-08
   Ferric(OH)2+    4.636e-08   4.281e-08    -7.334    -7.368    -0.035     (0)  
   Ferric(OH)3     2.140e-08   2.143e-08    -7.670    -7.669     0.001     (0)  
   Ferric(OH)4-    8.225e-11   7.594e-11   -10.085   -10.120    -0.035     (0)  
   FerricOH+2      4.577e-11   3.327e-11   -10.339   -10.478    -0.139     (0)  
   FerricH2PO4+2   3.492e-14   2.538e-14   -13.457   -13.595    -0.139     (0)  
   FerricHPO4+     6.633e-15   6.125e-15   -14.178   -14.213    -0.035     (0)  
   FerricSulfateO4+   2.626e-15   2.425e-15   -14.581   -14.615    -0.035     (0)  
   Ferric+3        2.533e-15   1.326e-15   -14.596   -14.877    -0.281     (0)  
   FerricCl+2      8.955e-17   6.509e-17   -16.048   -16.186    -0.139     (0)  
   Ferric(SulfateO4)2-   9.582e-18   8.848e-18   -17.019   -17.053    -0.035     (0)  
   FerricCl2+      5.119e-19   4.726e-19   -18.291   -18.325    -0.035     (0)  
   Ferric2(OH)2+4   1.067e-19   2.979e-20   -18.972   -19.526    -0.554     (0)  
   FerricHSulfateO4+2   2.298e-21   1.671e-21   -20.639   -20.777    -0.139     (0)  
   FerricCl3       7.673e-23   7.683e-23   -22.115   -22.114     0.001     (0)  
   Ferric3(OH)4+5   1.956e-24   2.664e-25   -23.709   -24.574    -0.866     (0)  
Ferrous       9.423e-08
   Ferrous+2       8.176e-08   6.020e-08    -7.087    -7.220    -0.133     (0)  
   FerrousHPO4     4.108e-09   4.113e-09    -8.386    -8.386     0.001     (0)  
   FerrousHCO3+    3.622e-09   3.344e-09    -8.441    -8.476    -0.035     (0)  
   FerrousH2PO4+   2.324e-09   2.146e-09    -8.634    -8.668    -0.035     (0)  
   FerrousSulfateO4   1.783e-09   1.785e-09    -8.749    -8.748     0.001     (0)  
   Ferrous(HSulfide)2   2.620e-10   2.623e-10    -9.582    -9.581     0.001     (0)  
   FerrousCl+      1.463e-10   1.351e-10    -9.835    -9.869    -0.035     (0)  
   FerrousCO3      1.460e-10   1.462e-10    -9.836    -9.835     0.001     (0)  
   FerrousOH+      8.011e-11   7.397e-11   -10.096   -10.131    -0.035     (0)  
   Ferrous(HSulfide)3-   6.841e-14   6.317e-14   -13.165   -13.200    -0.035     (0)  
   FerrousHSulfateO4+   3.270e-15   3.020e-15   -14.485   -14.520    -0.035     (0)  
Glutamine     3.004e-05
   Glutamine-2     3.004e-05   2.183e-05    -4.522    -4.661    -0.139     (0)  
   H2(Glutamine)   1.948e-09   1.950e-09    -8.710    -8.710     0.001     (0)  
   H(Glutamine)-   9.000e-10   8.310e-10    -9.046    -9.080    -0.035     (0)  
Glycine       3.062e-05
   Glycine-        3.061e-05   2.826e-05    -4.514    -4.549    -0.035     (0)  
   H2(Glycine)+    8.068e-09   7.450e-09    -8.093    -8.128    -0.035     (0)  
   H(Glycine)      1.589e-09   1.591e-09    -8.799    -8.798     0.001     (0)  
H(0)          1.254e-03
   H2              6.270e-04   6.278e-04    -3.203    -3.202     0.001     (0)  
K             6.733e-05
   K+              6.725e-05   6.204e-05    -4.172    -4.207    -0.035     (0)  
   KSulfateO4-     7.873e-08   7.270e-08    -7.104    -7.138    -0.035     (0)  
   KHPO4-          2.248e-09   2.076e-09    -8.648    -8.683    -0.035     (0)  
   KOH             8.348e-13   8.359e-13   -12.078   -12.078     0.001     (0)  
Methane       5.367e-07
   MethaneH4       5.367e-07   5.374e-07    -6.270    -6.270     0.001     (0)  
Mg            4.909e-04
   Mg+2            4.696e-04   3.455e-04    -3.328    -3.462    -0.133     (0)  
   MgSulfateO4     1.349e-05   1.351e-05    -4.870    -4.869     0.001     (0)  
   MgHPO4          4.390e-06   4.396e-06    -5.358    -5.357     0.001     (0)  
   MgHCO3+         2.432e-06   2.246e-06    -5.614    -5.649    -0.035     (0)  
   MgH2PO4+        8.672e-07   8.008e-07    -6.062    -6.097    -0.035     (0)  
   MgPO4-          4.367e-08   4.033e-08    -7.360    -7.394    -0.035     (0)  
   MgCO3           3.334e-08   3.338e-08    -7.477    -7.477     0.001     (0)  
   MgOH+           5.279e-09   4.875e-09    -8.277    -8.312    -0.035     (0)  
Na            3.369e-04
   Na+             3.366e-04   3.110e-04    -3.473    -3.507    -0.034     (0)  
   NaSulfateO4-    2.815e-07   2.600e-07    -6.550    -6.585    -0.035     (0)  
   NaHCO3          9.702e-08   9.715e-08    -7.013    -7.013     0.001     (0)  
   NaHPO4-         1.127e-08   1.041e-08    -7.948    -7.983    -0.035     (0)  
   NaCO3-          6.350e-10   5.863e-10    -9.197    -9.232    -0.035     (0)  
   NaOH            7.974e-12   7.984e-12   -11.098   -11.098     0.001     (0)  
Nitrate       3.508e-04
   NitrateO3-      3.508e-04   3.239e-04    -3.455    -3.490    -0.035     (0)  
O(0)          0.000e+00
   O2              0.000e+00   0.000e+00   -85.976   -85.976     0.001     (0)  
Ozero         2.890e-08
   Ozero2          1.445e-08   1.447e-08    -7.840    -7.840     0.001     (0)  
P             1.151e-04
   H2PO4-          7.698e-05   7.113e-05    -4.114    -4.148    -0.034     (0)  
   HPO4-2          2.363e-05   1.716e-05    -4.627    -4.765    -0.139     (0)  
   CaHPO4          7.524e-06   7.534e-06    -5.124    -5.123     0.001     (0)  
   MgHPO4          4.390e-06   4.396e-06    -5.358    -5.357     0.001     (0)  
   CaH2PO4+        1.578e-06   1.457e-06    -5.802    -5.837    -0.035     (0)  
   MgH2PO4+        8.672e-07   8.008e-07    -6.062    -6.097    -0.035     (0)  
   CaPO4-          7.502e-08   6.927e-08    -7.125    -7.159    -0.035     (0)  
   MgPO4-          4.367e-08   4.033e-08    -7.360    -7.394    -0.035     (0)  
   NaHPO4-         1.127e-08   1.041e-08    -7.948    -7.983    -0.035     (0)  
   FerrousHPO4     4.108e-09   4.113e-09    -8.386    -8.386     0.001     (0)  
   FerrousH2PO4+   2.324e-09   2.146e-09    -8.634    -8.668    -0.035     (0)  
   KHPO4-          2.248e-09   2.076e-09    -8.648    -8.683    -0.035     (0)  
   PO4-3           6.175e-11   3.007e-11   -10.209   -10.522    -0.313     (0)  
   FerricH2PO4+2   3.492e-14   2.538e-14   -13.457   -13.595    -0.139     (0)  
   FerricHPO4+     6.633e-15   6.125e-15   -14.178   -14.213    -0.035     (0)  
Sulfate       2.688e-04
   SulfateO4-2     2.282e-04   1.668e-04    -3.642    -3.778    -0.136     (0)  
   CaSulfateO4     2.661e-05   2.664e-05    -4.575    -4.574     0.001     (0)  
   MgSulfateO4     1.349e-05   1.351e-05    -4.870    -4.869     0.001     (0)  
   NaSulfateO4-    2.815e-07   2.600e-07    -6.550    -6.585    -0.035     (0)  
   AmmH4SulfateO4-   1.892e-07   1.747e-07    -6.723    -6.758    -0.035     (0)  
   KSulfateO4-     7.873e-08   7.270e-08    -7.104    -7.138    -0.035     (0)  
   HSulfateO4-     4.519e-09   4.172e-09    -8.345    -8.380    -0.035     (0)  
   FerrousSulfateO4   1.783e-09   1.785e-09    -8.749    -8.748     0.001     (0)  
   CaHSulfateO4+   4.350e-11   4.016e-11   -10.362   -10.396    -0.035     (0)  
   FerrousHSulfateO4+   3.270e-15   3.020e-15   -14.485   -14.520    -0.035     (0)  
   FerricSulfateO4+   2.626e-15   2.425e-15   -14.581   -14.615    -0.035     (0)  
   Ferric(SulfateO4)2-   9.582e-18   8.848e-18   -17.019   -17.053    -0.035     (0)  
   FerricHSulfateO4+2   2.298e-21   1.671e-21   -20.639   -20.777    -0.139     (0)  
Sulfide       7.366e-06
   H2Sulfide       4.968e-06   4.975e-06    -5.304    -5.303     0.001     (0)  
   HSulfide-       2.398e-06   2.211e-06    -5.620    -5.655    -0.035     (0)  
   Ferrous(HSulfide)2   2.620e-10   2.623e-10    -9.582    -9.581     0.001     (0)  
   Sulfide-2       1.419e-12   1.038e-12   -11.848   -11.984    -0.136     (0)  
   Ferrous(HSulfide)3-   6.841e-14   6.317e-14   -13.165   -13.200    -0.035     (0)  
Threonine     3.004e-05
   Threonine-2     3.004e-05   2.183e-05    -4.522    -4.661    -0.139     (0)  
   H2(Threonine)   1.903e-09   1.906e-09    -8.720    -8.720     0.001     (0)  
   H(Threonine)-   8.595e-10   7.936e-10    -9.066    -9.100    -0.035     (0)  
Tyrosine      3.004e-05
   Tyrosine-2      3.004e-05   2.183e-05    -4.522    -4.661    -0.139     (0)  
   H2(Tyrosine)    1.860e-09   1.862e-09    -8.730    -8.730     0.001     (0)  
   H(Tyrosine)-    9.644e-10   8.905e-10    -9.016    -9.050    -0.035     (0)  

------------------------------Saturation indices-------------------------------

  Phase               SI** log IAP   log K(298 K,   0 atm)

  FixpH            -6.59     -6.59    0.00  H+
  H2(g)            -0.05     -3.20   -3.15  H2
  H2O(g)           -1.51     -0.00    1.51  H2O
  Halite           -7.88     -6.30    1.58  NaCl
  Hydroxyapatite    0.00     -3.42   -3.42  Ca5(PO4)3OH
  ORM             762.73   -116.50 -879.23  C5H4O2Amm
  redoxAnhydrite   -2.51     -6.87   -4.36  CaSulfateO4
  redoxAragonite   -1.76    -10.09   -8.34  CaCO3
  redoxCalcite     -1.61    -10.09   -8.48  CaCO3
  redoxCH4(g)      -3.41     -6.27   -2.86  MethaneH4
  redoxCO2(g)      -2.03     -3.49   -1.47  CO2
  redoxDolomite    -3.46    -20.55  -17.09  CaMg(CO3)2
  redoxFe(OH)3(a)   0.00      4.89    4.89  Ferric(OH)3
  redoxFeS(ppt)    -2.37     -6.29   -3.92  FerrousSulfide
  redoxGoethite     5.89      4.89   -1.00  FerricOOH
  redoxGypsum      -2.29     -6.87   -4.58  CaSulfateO4:2H2O
  redoxH2S(g)      -4.31     -5.30   -1.00  H2Sulfide
  redoxHematite    13.79      9.78   -4.01  Ferric2O3
  redoxJarosite-K  -7.65    -16.86   -9.21  KFerric3(SulfateO4)2(OH)6
  redoxMackinawite  -1.64     -6.29   -4.65  FerrousSulfide
  redoxMelanterite  -8.79    -11.00   -2.21  FerrousSulfateO4:7H2O
  redoxNH3(g)      -8.51     -6.74    1.77  AmmH3
  redoxO2(g)       -4.95     -7.84   -2.89  Ozero2
  redoxPyrite       0.00    -18.48  -18.48  FerrousSulfide2
  redoxSiderite    -3.33    -14.22  -10.89  FerrousCO3
  redoxSulfur     -10.13     -5.25    4.88  Sulfide
  redoxVivianite   -6.71    -42.71  -36.00  Ferrous3(PO4)2:8H2O

**For a gas, SI = log10(fugacity). Fugacity = pressure * phi / 1 atm.
  For ideal gases, phi = 1.

Reaction step 2.

Using solution 1.	
Using exchange 1.	Exchange assemblage after simulation 3.
Using surface 1.	
Using pure phase assemblage 1.	
Using gas phase 1.	fixed volume gas phase
Using kinetics 1.	Decomposition  

Kinetics 1.	Decomposition  

	Time step: 1 seconds  (Incremented time: 2 seconds)

	Rate name       Delta Moles Total Moles   Reactant        Coefficient

	BA                6.455e-02   7.061e-01   CH2O                      0
	OAC               2.832e-02   7.419e-02   CH2O                      0
	Aero              5.815e-07   1.011e+00   CH2O                      0
	                                          HCO3                  -1.44
	                                          Ozero2                 1.44
	SulR              4.999e-05   1.000e+00   CH2O                      0
	                                          HCO3                     -9
	                                          HSulfide-              -4.5
	                                          SulfateO4-2             4.5
	Meth             -0.000e+00   1.000e+00   CH2O                      0
	                                          HCO3                  20.24
	                                          MethaneH4            -20.24
	POM              -1.405e-01   4.425e+00   CH2O                      0
	MOM               7.302e-02   1.605e+01   CH2O                      0
	DOM              -1.436e-01   6.928e-02   CH2O                      0
	QOM              -5.428e-03   1.753e+00   CH2O                      0
	EP                6.258e-04   5.316e-02   CH2O                      0
	EM                6.258e-04   5.316e-02   CH2O                      0
	respiration       1.245e-01   4.934e-01   CH2O                      0
	Tot              -1.247e-01   2.299e+01   CH2O                      0
	Salt              9.753e-04   2.960e-03   CH2O                      0
	                                          Ca+2                     -2
	                                          Cl-                     -24
	                                          HCO3                     -3
	                                          K+                       -1
	                                          Mg+2                     -4
	                                          Na+                     -25
	                                          Nitrate                  -5
	                                          Sulfate                  -3
	Caero             8.676e-06   2.588e-02   CH2O                      0
	Csulr             5.297e-04   6.527e-04   CH2O                      0
	Cmeth            -0.000e+00   0.000e+00   CH2O                      0

-----------------------------------Gas phase-----------------------------------

Total pressure:  0.01      atmospheres 
    Gas volume:   9.00e-01 liters
  Molar volume:   2.15e+03 liters/mole

                                                        Moles in gas
                                            ----------------------------------
Component                log P           P     Initial       Final       Delta

redoxCH4(g)              -3.41   3.894e-04   1.432e-05   1.432e-05   4.618e-09
redoxCO2(g)              -1.96   1.100e-02   3.473e-04   4.047e-04   5.742e-05
redoxO2(g)               -6.49   3.243e-07   4.155e-07   1.193e-08  -4.035e-07

-------------------------------Phase assemblage--------------------------------

                                                      Moles in assemblage
Phase               SI  log IAP  log K(T, P)   Initial       Final       Delta

Hydroxyapatite   -0.00    -3.42     -3.42    3.780e-04   4.449e-04   6.694e-05
redoxCalcite     -1.51    -9.99     -8.48    0.000e+00           0   0.000e+00
redoxFe(OH)3(a)    0.00     4.89      4.89    2.005e+00   2.005e+00   5.153e-08
redoxFeS(ppt)    -2.20    -6.11     -3.92    0.000e+00           0   0.000e+00
redoxPyrite       0.00   -18.48    -18.48    1.409e-03   1.466e-03   5.719e-05

------------------------------Surface composition------------------------------

Diffuse Double Layer Surface-Complexation Model

H             
	 -1.908e-09  Surface + diffuse layer charge, eq
	 -6.035e-01  Surface charge, eq
	 -2.130e-02  sigma, C/m²
	 -7.447e-02  psi, V
	  2.899e+00  -F*psi/RT
	  1.815e+01  exp(-F*psi/RT)
	  3.417e+04  specific area, m²/g
	  2.734e+06  m² for   8.000e+01 g

	Water in diffuse layer: 2.734e+01 kg, 94.2% of total DDL-water.

	Total moles in diffuse layer (excluding water), Donnan calculation.
	Donnan Layer potential, psi_DL = -2.040e-02 V.
	Boltzmann factor, exp(-psi_DL * F / RT) = 2.213e+00 (= c_DL / c_free if z is +1).

	Element       	     Moles
	Alanine       	  1.3908e-04
	Amm           	  6.4212e-03
	C             	  1.8713e-02
	Ca            	  2.1944e-01
	Cl            	  3.7380e-02
	Cysteine      	  1.4020e-04
	Ferric        	  3.8217e-06
	Ferrous       	  1.4525e-05
	Glutamine     	  1.3895e-04
	Glycine       	  3.3426e-04
	H             	  1.1769e-01
	K             	  5.0209e-03
	Methane       	  1.4667e-05
	Mg            	  9.4431e-02
	Na            	  2.9549e-02
	Nitrate       	  7.6097e-03
	O             	  9.0560e-02
	Ozero         	  2.2676e-08
	P             	  1.2977e-03
	Sulfate       	  4.1531e-03
	Sulfide       	  2.5758e-04
	Threonine     	  1.3895e-04
	Tyrosine      	  1.3895e-04

H_a           
	  3.837e-02  moles
	                                   Mole                     Log
	Species               Moles    Fraction    Molality    Molality

	H_a-              3.790e-02       0.988   2.009e-02      -1.697
	H_aCa+            3.448e-04       0.009   1.828e-04      -3.738
	H_aMg+            1.183e-04       0.003   6.273e-05      -4.202
	H_aH              7.812e-06       0.000   4.141e-06      -5.383

H_ab          
	  6.378e-02  moles
	                                   Mole                     Log
	Species               Moles    Fraction    Molality    Molality

	H_ab-2            6.338e-02       0.994   3.360e-02      -1.474
	H_abCa            1.824e-04       0.003   9.668e-05      -4.015
	H_abH-            1.683e-04       0.003   8.922e-05      -4.050
	H_abMg            4.971e-05       0.001   2.635e-05      -4.579
	H_abH2            3.469e-08       0.000   1.839e-08      -7.735

H_ad          
	  6.378e-02  moles
	                                   Mole                     Log
	Species               Moles    Fraction    Molality    Molality

	H_ad-2            3.077e-02       0.482   1.631e-02      -1.787
	H_adCa            1.503e-02       0.236   7.971e-03      -2.098
	H_adH-            1.387e-02       0.218   7.356e-03      -2.133
	H_adMg            4.098e-03       0.064   2.173e-03      -2.663
	H_adH2            2.860e-06       0.000   1.516e-06      -5.819

H_af          
	  6.378e-02  moles
	                                   Mole                     Log
	Species               Moles    Fraction    Molality    Molality

	H_afH-            5.813e-02       0.911   3.082e-02      -1.511
	H_afCa            5.614e-03       0.088   2.976e-03      -2.526
	H_af-2            2.091e-05       0.000   1.108e-05      -4.955
	H_afH2            1.198e-05       0.000   6.352e-06      -5.197
	H_afMg            2.599e-06       0.000   1.378e-06      -5.861

H_ah          
	  6.378e-02  moles
	                                   Mole                     Log
	Species               Moles    Fraction    Molality    Molality

	H_ahH-            6.375e-02       1.000   3.380e-02      -1.471
	H_ahH2            1.314e-05       0.000   6.967e-06      -5.157
	H_ahCa            1.095e-05       0.000   5.805e-06      -5.236
	H_ahMg            2.850e-06       0.000   1.511e-06      -5.821
[...]
	Species               Moles    Fraction    Molality    Molality

	H_fH              1.902e-02       0.991   1.023e-02      -1.990
	H_fCa+            1.067e-04       0.006   5.741e-05      -4.241
	H_fMg+            3.789e-05       0.002   2.038e-05      -4.691
	H_f-              2.160e-05       0.001   1.162e-05      -4.935

H_g           
	  1.919e-02  moles
	                                   Mole                     Log
	Species               Moles    Fraction    Molality    Molality

	H_gH              1.904e-02       0.992   1.024e-02      -1.990
	H_gCa+            1.069e-04       0.006   5.747e-05      -4.241
	H_gMg+            3.793e-05       0.002   2.040e-05      -4.690
	H_g-              3.125e-07       0.000   1.681e-07      -6.774

H_h           
	  1.919e-02  moles
	                                   Mole                     Log
	Species               Moles    Fraction    Molality    Molality

	H_hH              1.905e-02       0.992   1.024e-02      -1.990
	H_hCa+            1.069e-04       0.006   5.747e-05      -4.241
	H_hMg+            3.793e-05       0.002   2.040e-05      -4.690
	H_h-              4.517e-09       0.000   2.429e-09      -8.614

Hfo           
	  7.665e-13  Surface + diffuse layer charge, eq
	  5.513e-05  Surface charge, eq
	  3.166e-05  sigma, C/m²
	  4.322e-05  psi, V
	 -1.682e-03  -F*psi/RT
	  9.983e-01  exp(-F*psi/RT)
	  6.000e+02  specific area, m²/g
	  1.680e+05  m² for   2.800e+02 g

	Water in diffuse layer: 1.680e+00 kg,  5.8% of total DDL-water.

	Total moles in diffuse layer (excluding water), Donnan calculation.
	Donnan Layer potential, psi_DL =  4.085e-06 V.
	Boltzmann factor, exp(-psi_DL * F / RT) = 9.998e-01 (= c_DL / c_free if z is +1).

	Element       	     Moles
	Alanine       	  1.5265e-05
	Amm           	  5.3378e-04
	C             	  1.9056e-02
	Ca            	  3.4014e-02
	Cl            	  9.0921e-02
	Cysteine      	  1.5302e-05
	Ferric        	  2.0771e-07
	Ferrous       	  4.1916e-08
	Glutamine     	  1.5261e-05
	Glycine       	  2.6031e-05
	H             	  2.0855e-01
	K             	  1.1264e-03
	Methane       	  9.9054e-04
	Mg            	  1.5688e-02
	Na            	  2.6875e-02
	Nitrate       	  1.8928e-02
	O             	  1.1580e-01
	Ozero         	  1.9312e-11
	P             	  3.5946e-05
	Sulfate       	  2.4258e-03
	Sulfide       	  8.1872e-03
	Threonine     	  1.5261e-05
	Tyrosine      	  1.5261e-05

Hfo_s         
	  5.000e-06  moles
	                                   Mole                     Log
	Species               Moles    Fraction    Molality    Molality

	Hfo_sOHCa+2       4.927e-06       0.985   2.650e-06      -5.577
	Hfo_sOH2+         6.601e-08       0.013   3.550e-08      -7.450
	Hfo_sOH           7.090e-09       0.001   3.813e-09      -8.419
	Hfo_sO-           1.745e-11       0.000   9.384e-12     -11.028
	Hfo_sOFerrous+    5.157e-14       0.000   2.774e-14     -13.557

Hfo_w         
	  2.000e-04  moles
	                                   Mole                     Log
	Species               Moles    Fraction    Molality    Molality

	Hfo_wOH2+         1.051e-04       0.525   5.652e-05      -4.248
	Hfo_wHPO4-        5.697e-05       0.285   3.064e-05      -4.514
	Hfo_wH2PO4        2.161e-05       0.108   1.162e-05      -4.935
	Hfo_wOH           1.129e-05       0.056   6.071e-06      -5.217
	Hfo_wPO4-2        2.551e-06       0.013   1.372e-06      -5.863
	Hfo_wOMg+         2.117e-06       0.011   1.139e-06      -5.944
	Hfo_wOCa+         2.486e-07       0.001   1.337e-07      -6.874
	Hfo_wSulfateO4-   9.301e-08       0.000   5.003e-08      -7.301
	Hfo_wO-           2.777e-08       0.000   1.494e-08      -7.826
	Hfo_wOHSulfateO4-2   1.987e-08       0.000   1.069e-08      -7.971
	Hfo_wOFerrous+    7.662e-13       0.000   4.121e-13     -12.385
	Hfo_wOFerrousOH   4.306e-15       0.000   2.316e-15     -14.635

-----------------------------Exchange composition------------------------------

X                1.600e+01 mol

	                               Equiv-    Equivalent      Log 
	Species             Moles      alents      Fraction     Gamma

	CaX2              4.612e+00   9.225e+00   5.766e-01     0.000
	MgX2              2.781e+00   5.562e+00   3.476e-01     0.000
	NaX               1.104e+00   1.104e+00   6.902e-02     0.000
	KX                7.169e-02   7.169e-02   4.480e-03     0.000
	AmmH4X            3.703e-02   3.703e-02   2.314e-03     0.000
	HX                5.146e-04   5.146e-04   3.216e-05    -0.084
	FerrousX2         5.293e-08   1.059e-07   6.616e-09    -0.401

-----------------------------Solution composition------------------------------

	Elements           Molality       Moles

	Alanine           9.084e-06   1.689e-05
	Amm               3.178e-04   5.908e-04
	C                 1.134e-02   2.109e-02
	Ca                2.025e-02   3.765e-02
	Cl                5.411e-02   1.006e-01
	Cysteine          9.105e-06   1.693e-05
	Ferric            1.237e-07   2.299e-07
	Ferrous           2.495e-08   4.639e-08
	Glutamine         9.081e-06   1.688e-05
	Glycine           1.549e-05   2.880e-05
	K                 6.706e-04   1.247e-03
	Methane           5.896e-04   1.096e-03
	Mg                9.341e-03   1.737e-02
	Na                1.600e-02   2.975e-02
	Nitrate           1.126e-02   2.094e-02
	Ozero             1.150e-11   2.137e-11
	P                 2.139e-05   3.978e-05
	Sulfate           1.444e-03   2.684e-03
	Sulfide           4.873e-03   9.060e-03
	Threonine         9.081e-06   1.688e-05
	Tyrosine          9.081e-06   1.688e-05

----------------------------Description of solution----------------------------

                                       pH  =   6.320      Charge balance
                                       pe  =  -7.261      Adjusted to redox equilibrium
      Specific Conductance (µS/cm,  25°C)  = 7433
                        Activity of water  =   0.997
                 Ionic strength (mol/kgw)  =   1.030e-01
                       Mass of water (kg)  =   1.859e+00
                 Total alkalinity (eq/kg)  =   7.845e-03
                       Total CO2 (mol/kg)  =   1.134e-02
                         Temperature (°C)  =  25.00
                           Pressure (atm)  =  0.58
                  Electrical balance (eq)  =  -1.406e-07
 Percent error, 100*(Cat-|An|)/(Cat+|An|)  =  -0.00
                               Iterations  = 251
                                  Total H  = 2.066291e+02
                                  Total O  = 1.033273e+02

----------------------------Distribution of species----------------------------

                                               Log       Log       Log    mole V
   Species          Molality    Activity  Molality  Activity     Gamma   cm³/mol

   H+              5.803e-07   4.783e-07    -6.236    -6.320    -0.084      0.00
   OH-             2.748e-08   2.087e-08    -7.561    -7.681    -0.120     (0)  
   H2O             5.551e+01   9.969e-01     1.744    -0.001     0.000     18.07
Alanine       9.084e-06
   Alanine-2       9.078e-06   3.353e-06    -5.042    -5.475    -0.433     (0)  
   H2(Alanine)     5.551e-09   5.685e-09    -8.256    -8.245     0.010     (0)  
   H(Alanine)-     4.605e-10   3.590e-10    -9.337    -9.445    -0.108     (0)  
Amm           3.178e-04
   AmmH4+          3.164e-04   2.348e-04    -3.500    -3.629    -0.130     (0)  
   AmmH4SulfateO4-   1.104e-06   8.609e-07    -5.957    -6.065    -0.108     (0)  
   AmmH3           2.732e-07   2.798e-07    -6.563    -6.553     0.010     (0)  
C(4)          1.134e-02
   HCO3-           5.749e-03   4.522e-03    -2.240    -2.345    -0.104     (0)  
   CO2             4.763e-03   4.877e-03    -2.322    -2.312     0.010     (0)  
   CaHCO3+         5.480e-04   4.310e-04    -3.261    -3.366    -0.104     (0)  
   MgHCO3+         2.428e-04   1.893e-04    -3.615    -3.723    -0.108     (0)  
   NaHCO3          3.092e-05   3.166e-05    -4.510    -4.499     0.010     (0)  
   CaCO3           5.434e-06   5.565e-06    -5.265    -5.255     0.010     (0)  
   MgCO3           1.478e-06   1.514e-06    -5.830    -5.820     0.010     (0)  
   CO3-2           1.159e-06   4.434e-07    -5.936    -6.353    -0.417     (0)  
   NaCO3-          1.319e-07   1.028e-07    -6.880    -6.988    -0.108     (0)  
   FerrousHCO3+    1.801e-11   1.404e-11   -10.744   -10.853    -0.108     (0)  
   FerrousCO3      3.226e-13   3.303e-13   -12.491   -12.481     0.010     (0)  
Ca            2.025e-02
   Ca+2            1.928e-02   7.471e-03    -1.715    -2.127    -0.412     (0)  
   CaHCO3+         5.480e-04   4.310e-04    -3.261    -3.366    -0.104     (0)  
   CaSulfateO4     4.143e-04   4.243e-04    -3.383    -3.372     0.010     (0)  
   CaCO3           5.434e-06   5.565e-06    -5.265    -5.255     0.010     (0)  
   CaHPO4          3.797e-06   3.888e-06    -5.421    -5.410     0.010     (0)  
   CaH2PO4+        1.793e-06   1.398e-06    -5.746    -5.855    -0.108     (0)  
   CaPO4-          2.467e-08   1.923e-08    -7.608    -7.716    -0.108     (0)  
   CaOH+           3.315e-09   2.585e-09    -8.479    -8.588    -0.108     (0)  
   CaHSulfateO4+   1.525e-09   1.189e-09    -8.817    -8.925    -0.108     (0)  
Cl            5.411e-02
   Cl-             5.411e-02   4.124e-02    -1.267    -1.385    -0.118     (0)  
   FerrousCl+      2.268e-12   1.768e-12   -11.644   -11.753    -0.108     (0)  
   FerricCl+2      2.896e-14   1.070e-14   -13.538   -13.971    -0.433     (0)  
   FerricCl2+      2.528e-15   1.970e-15   -14.597   -14.705    -0.108     (0)  
   FerricCl3       7.935e-18   8.125e-18   -17.100   -17.090     0.010     (0)  
Cysteine      9.105e-06
   Cysteine-2      9.060e-06   3.346e-06    -5.043    -5.475    -0.433     (0)  
   H2(Cysteine)    4.504e-08   4.612e-08    -7.346    -7.336     0.010     (0)  
   H(Cysteine)-    1.053e-10   8.207e-11    -9.978   -10.086    -0.108     (0)  
Ferric        1.237e-07
   Ferric(OH)2+    1.024e-07   7.980e-08    -6.990    -7.098    -0.108     (0)  
   Ferric(OH)3     2.093e-08   2.143e-08    -7.679    -7.669     0.010     (0)  
   FerricOH+2      3.130e-10   1.156e-10    -9.504    -9.937    -0.433     (0)  
   Ferric(OH)4-    5.226e-11   4.074e-11   -10.282   -10.390    -0.108     (0)  
   Ferric+3        4.896e-14   8.590e-15   -13.310   -14.066    -0.756     (0)  
   FerricH2PO4+2   4.577e-14   1.690e-14   -13.339   -13.772    -0.433     (0)  
   FerricSulfateO4+   3.439e-14   2.681e-14   -13.464   -13.572    -0.108     (0)  
   FerricCl+2      2.896e-14   1.070e-14   -13.538   -13.971    -0.433     (0)  
   FerricHPO4+     2.815e-15   2.195e-15   -14.551   -14.659    -0.108     (0)  
   FerricCl2+      2.528e-15   1.970e-15   -14.597   -14.705    -0.108     (0)  
   Ferric(SulfateO4)2-   2.141e-16   1.669e-16   -15.669   -15.778    -0.108     (0)  
   Ferric2(OH)2+4   1.934e-17   3.597e-19   -16.714   -18.444    -1.730     (0)  
   FerricCl3       7.935e-18   8.125e-18   -17.100   -17.090     0.010     (0)  
   FerricHSulfateO4+2   9.295e-20   3.433e-20   -19.032   -19.464    -0.433     (0)  
   Ferric3(OH)4+5   3.032e-21   5.998e-24   -20.518   -23.222    -2.704     (0)  
Ferrous       2.495e-08
   Ferrous(HSulfide)2   2.201e-08   2.254e-08    -7.657    -7.647     0.010     (0)  
   Ferrous(HSulfide)3-   2.841e-09   2.214e-09    -8.547    -8.655    -0.108     (0)  
   Ferrous+2       7.819e-11   3.106e-11   -10.107   -10.508    -0.401     (0)  
   FerrousHCO3+    1.801e-11   1.404e-11   -10.744   -10.853    -0.108     (0)  
   FerrousCl+      2.268e-12   1.768e-12   -11.644   -11.753    -0.108     (0)  
   FerrousSulfateO4   1.535e-12   1.572e-12   -11.814   -11.804     0.010     (0)  
   FerrousCO3      3.226e-13   3.303e-13   -12.491   -12.481     0.010     (0)  
   FerrousH2PO4+   1.460e-13   1.138e-13   -12.836   -12.944    -0.108     (0)  
   FerrousHPO4     1.146e-13   1.174e-13   -12.941   -12.931     0.010     (0)  
   FerrousOH+      2.626e-14   2.047e-14   -13.581   -13.689    -0.108     (0)  
   FerrousHSulfateO4+   6.338e-18   4.941e-18   -17.198   -17.306    -0.108     (0)  
Glutamine     9.081e-06
   Glutamine-2     9.080e-06   3.353e-06    -5.042    -5.475    -0.433     (0)  
   H2(Glutamine)   1.010e-09   1.035e-09    -8.995    -8.985     0.010     (0)  
   H(Glutamine)-   3.043e-10   2.372e-10    -9.517    -9.625    -0.108     (0)  
Glycine       1.549e-05
   Glycine-        1.548e-05   1.207e-05    -4.810    -4.918    -0.108     (0)  
   H2(Glycine)+    1.409e-08   1.099e-08    -7.851    -7.959    -0.108     (0)  
   H(Glycine)      1.233e-09   1.262e-09    -8.909    -8.899     0.010     (0)  
H(0)          1.053e-01
   H2              5.267e-02   5.394e-02    -1.278    -1.268     0.010     (0)  
K             6.706e-04
   K+              6.693e-04   5.100e-04    -3.174    -3.292    -0.118     (0)  
   KSulfateO4-     1.308e-06   1.020e-06    -5.883    -5.991    -0.108     (0)  
   KHPO4-          1.211e-09   9.439e-10    -8.917    -9.025    -0.108     (0)  
   KOH             3.600e-12   3.686e-12   -11.444   -11.433     0.010     (0)  
Methane       5.896e-04
   MethaneH4       5.896e-04   6.038e-04    -3.229    -3.219     0.010     (0)  
Mg            9.341e-03
   Mg+2            8.860e-03   3.578e-03    -2.053    -2.446    -0.394     (0)  
   MgHCO3+         2.428e-04   1.893e-04    -3.615    -3.723    -0.108     (0)  
   MgSulfateO4     2.331e-04   2.387e-04    -3.632    -3.622     0.010     (0)  
   MgHPO4          2.459e-06   2.518e-06    -5.609    -5.599     0.010     (0)  
   MgCO3           1.478e-06   1.514e-06    -5.830    -5.820     0.010     (0)  
   MgH2PO4+        1.093e-06   8.524e-07    -5.961    -6.069    -0.108     (0)  
   MgOH+           3.474e-08   2.708e-08    -7.459    -7.567    -0.108     (0)  
   MgPO4-          1.594e-08   1.243e-08    -7.798    -7.906    -0.108     (0)  
Na            1.600e-02
   Na+             1.595e-02   1.245e-02    -1.797    -1.905    -0.107     (0)  
   NaHCO3          3.092e-05   3.166e-05    -4.510    -4.499     0.010     (0)  
   NaSulfateO4-    2.278e-05   1.776e-05    -4.642    -4.751    -0.108     (0)  
   NaCO3-          1.319e-07   1.028e-07    -6.880    -6.988    -0.108     (0)  
   NaHPO4-         2.956e-08   2.305e-08    -7.529    -7.637    -0.108     (0)  
   NaOH            1.675e-10   1.715e-10    -9.776    -9.766     0.010     (0)  
Nitrate       1.126e-02
   NitrateO3-      1.126e-02   8.782e-03    -1.948    -2.056    -0.108     (0)  
O(0)          0.000e+00
   O2              0.000e+00   0.000e+00   -89.857   -89.846     0.010     (0)  
Ozero         1.150e-11
   Ozero2          5.748e-12   5.886e-12   -11.241   -11.230     0.010     (0)  
P             2.139e-05
   H2PO4-          9.441e-06   7.312e-06    -5.025    -5.136    -0.111     (0)  
   CaHPO4          3.797e-06   3.888e-06    -5.421    -5.410     0.010     (0)  
   HPO4-2          2.741e-06   9.492e-07    -5.562    -6.023    -0.460     (0)  
   MgHPO4          2.459e-06   2.518e-06    -5.609    -5.599     0.010     (0)  
   CaH2PO4+        1.793e-06   1.398e-06    -5.746    -5.855    -0.108     (0)  
   MgH2PO4+        1.093e-06   8.524e-07    -5.961    -6.069    -0.108     (0)  
   NaHPO4-         2.956e-08   2.305e-08    -7.529    -7.637    -0.108     (0)  
   CaPO4-          2.467e-08   1.923e-08    -7.608    -7.716    -0.108     (0)  
   MgPO4-          1.594e-08   1.243e-08    -7.798    -7.906    -0.108     (0)  
   KHPO4-          1.211e-09   9.439e-10    -8.917    -9.025    -0.108     (0)  
   PO4-3           9.723e-12   8.947e-13   -11.012   -12.048    -1.036     (0)  
   FerrousH2PO4+   1.460e-13   1.138e-13   -12.836   -12.944    -0.108     (0)  
   FerrousHPO4     1.146e-13   1.174e-13   -12.941   -12.931     0.010     (0)  
   FerricH2PO4+2   4.577e-14   1.690e-14   -13.339   -13.772    -0.433     (0)  
   FerricHPO4+     2.815e-15   2.195e-15   -14.551   -14.659    -0.108     (0)  
Sulfate       1.444e-03
   SulfateO4-2     7.710e-04   2.846e-04    -3.113    -3.546    -0.433     (0)  
   CaSulfateO4     4.143e-04   4.243e-04    -3.383    -3.372     0.010     (0)  
   MgSulfateO4     2.331e-04   2.387e-04    -3.632    -3.622     0.010     (0)  
   NaSulfateO4-    2.278e-05   1.776e-05    -4.642    -4.751    -0.108     (0)  
   KSulfateO4-     1.308e-06   1.020e-06    -5.883    -5.991    -0.108     (0)  
   AmmH4SulfateO4-   1.104e-06   8.609e-07    -5.957    -6.065    -0.108     (0)  
   HSulfateO4-     1.698e-08   1.323e-08    -7.770    -7.878    -0.108     (0)  
   CaHSulfateO4+   1.525e-09   1.189e-09    -8.817    -8.925    -0.108     (0)  
   FerrousSulfateO4   1.535e-12   1.572e-12   -11.814   -11.804     0.010     (0)  
   FerricSulfateO4+   3.439e-14   2.681e-14   -13.464   -13.572    -0.108     (0)  
   Ferric(SulfateO4)2-   2.141e-16   1.669e-16   -15.669   -15.778    -0.108     (0)  
   FerrousHSulfateO4+   6.338e-18   4.941e-18   -17.198   -17.306    -0.108     (0)  
   FerricHSulfateO4+2   9.295e-20   3.433e-20   -19.032   -19.464    -0.433     (0)  
Sulfide       4.873e-03
   H2Sulfide       3.685e-03   3.773e-03    -2.434    -2.423     0.010     (0)  
   HSulfide-       1.188e-03   9.023e-04    -2.925    -3.045    -0.120     (0)  
   Ferrous(HSulfide)2   2.201e-08   2.254e-08    -7.657    -7.647     0.010     (0)  
   Ferrous(HSulfide)3-   2.841e-09   2.214e-09    -8.547    -8.655    -0.108     (0)  
   Sulfide-2       6.115e-10   2.279e-10    -9.214    -9.642    -0.429     (0)  
Threonine     9.081e-06
   Threonine-2     9.080e-06   3.353e-06    -5.042    -5.475    -0.433     (0)  
   H2(Threonine)   9.874e-10   1.011e-09    -9.005    -8.995     0.010     (0)  
   H(Threonine)-   2.906e-10   2.265e-10    -9.537    -9.645    -0.108     (0)  
Tyrosine      9.081e-06
   Tyrosine-2      9.080e-06   3.353e-06    -5.042    -5.475    -0.433     (0)  
   H2(Tyrosine)    9.649e-10   9.881e-10    -9.015    -9.005     0.010     (0)  
   H(Tyrosine)-    3.261e-10   2.542e-10    -9.487    -9.595    -0.108     (0)  

------------------------------Saturation indices-------------------------------

  Phase               SI** log IAP   log K(298 K,   1 atm)

  FixpH            -6.32     -6.32    0.00  H+
  H2(g)             1.88     -1.27   -3.15  H2
  H2O(g)           -1.51     -0.00    1.51  H2O
  Halite           -4.87     -3.29    1.58  NaCl
  Hydroxyapatite    0.00     -3.42   -3.42  Ca5(PO4)3OH
  ORM             741.58   -137.65 -879.23  C5H4O2Amm
  redoxAnhydrite   -1.31     -5.67   -4.36  CaSulfateO4
  redoxAragonite   -0.14     -8.48   -8.34  CaCO3
  redoxCalcite      0.00     -8.48   -8.48  CaCO3
  redoxCH4(g)      -0.36     -3.22   -2.86  MethaneH4
  redoxCO2(g)      -0.84     -2.31   -1.47  CO2
  redoxDolomite    -0.19    -17.28  -17.09  CaMg(CO3)2
  redoxFe(OH)3(a)   0.00      4.89    4.89  Ferric(OH)3
  redoxFeS(ppt)    -3.32     -7.23   -3.92  FerrousSulfide
  redoxGoethite     5.89      4.89   -1.00  FerricOOH
  redoxGypsum      -1.09     -5.68   -4.58  CaSulfateO4:2H2O
  redoxH2S(g)      -1.43     -2.42   -1.00  H2Sulfide
  redoxHematite    13.79      9.79   -4.01  Ferric2O3
  redoxJarosite-K  -5.46    -14.67   -9.21  KFerric3(SulfateO4)2(OH)6
  redoxMackinawite  -2.58     -7.23   -4.65  FerrousSulfide
  redoxMelanterite -11.85    -14.06   -2.21  FerrousSulfateO4:7H2O
  redoxNH3(g)      -8.32     -6.55    1.77  AmmH3
  redoxO2(g)       -8.34    -11.23   -2.89  Ozero2
  redoxPyrite       0.00    -18.48  -18.48  FerrousSulfide2
  redoxSiderite    -5.97    -16.86  -10.89  FerrousCO3
  redoxSulfur      -9.19     -4.31    4.88  Sulfide
  redoxVivianite  -19.63    -55.63  -36.00  Ferrous3(PO4)2:8H2O

**For a gas, SI = log10(fugacity). Fugacity = pressure * phi / 1 atm.
  For ideal gases, phi = 1.

------------------
End of simulation.
------------------

------------------------------------
Reading input data for simulation 4.
------------------------------------

--------------------------------
End of Run after 100.21 Seconds.
--------------------------------

