   Input file: closed_redox_sw2.phrq
  Output file: closed_redox_sw2.phrq.out
Database file: ../database/redox.dat

------------------
Reading data base.
------------------

	SOLUTION_MASTER_SPECIES
	SOLUTION_SPECIES
	PHASES
	EXCHANGE_MASTER_SPECIES
	EXCHANGE_SPECIES
	SURFACE_MASTER_SPECIES
	SURFACE_SPECIES
	RATES
	END
------------------------------------
Reading input data for simulation 1.
------------------------------------

	DATABASE ../database/redox.dat
	TITLE  MEND and redox coupling
	CALCULATE_VALUES
	SC_T25
	 start
	 10 sc25 = SC/(1+0.021*(temperature-25))   #in us/cm
	 20 SAVE sc25
	 end
	fsl1    ##more sensitive (green)
	 start
	 10 fsl1 = 1 / (1.0 + exp(1.68 * (log10(CALC_VALUE("SC_T25")/1000)+0.26))) #log(ds/m)
	 40 SAVE fsl1
	 end
	fsl2     ##medium (purple)
	 start
	 10 fsl2 = 1 / (1.0 + exp(2.28 * (log10(CALC_VALUE("SC_T25")/1000)-0.60)))  #log(ds/m)
	 40 SAVE fsl2
	 end
	fsl3     ##medium (red)
	 start
	 10 fsl3 = 1 / (1.0 + exp(2.23 * (log10(CALC_VALUE("SC_T25")/1000)-1.11)))  #log(ds/m)
	 40 SAVE fsl3
	 end
	fsl4    ##more resistant (black)
	 start
	 10 fsl4 = 1 / (1.0 + exp(4.03 * (log10(CALC_VALUE("SC_T25")/1000)-1.78)))  #log(ds/m)
	 40 SAVE fsl4
	 end
	SOLUTION 1    
	units umol/L        #3.774L total volume  ##based on clay fresh system
	pH    7  charge
	temperature 	 25
	water         1.887   #default is 1 kg
	P           5
	Amm         38
	Na          114
	Ca          183
	Cl          133 
	Sulfate     4 
	K           28
	Mg          79
	C(4)        9  
	Nitrate        0
	Ferric       50
	Alanine      52
	Cysteine     52
	Glycine      52
	Glutamine    52
	Threonine    52
	Tyrosine     52
	Ozero        600    redoxO2(g) -0.7
	Methane      1
	Sulfide      0.1
	  SAVE SOLUTION 1
	END
-----
TITLE
-----

  MEND and redox coupling

-------------------------------------------
Beginning of initial solution calculations.
-------------------------------------------

Initial solution 1.	

-----------------------------Solution composition------------------------------

	Elements           Molality       Moles

	Alanine           5.200e-05   9.813e-05
	Amm               3.800e-05   7.171e-05
	C(4)              9.001e-06   1.698e-05
	Ca                1.830e-04   3.453e-04
	Cl                1.330e-04   2.510e-04
	Cysteine          5.200e-05   9.813e-05
	Ferric            5.000e-05   9.436e-05
	Glutamine         5.200e-05   9.813e-05
	Glycine           5.200e-05   9.813e-05
	K                 2.800e-05   5.284e-05
	Methane           1.000e-06   1.887e-06
	Mg                7.901e-05   1.491e-04
	Na                1.140e-04   2.151e-04
	Ozero             5.111e-04   9.645e-04  Equilibrium with redoxO2(g)
	P                 5.000e-06   9.436e-06
	Sulfate           4.000e-06   7.549e-06
	Sulfide           1.000e-07   1.887e-07
	Threonine         5.200e-05   9.813e-05
	Tyrosine          5.200e-05   9.813e-05

----------------------------Description of solution----------------------------

                                       pH  =   6.951      Charge balance
                                       pe  =   4.000    
      Specific Conductance (µS/cm,  25°C)  = 49
                        Activity of water  =   1.000
                 Ionic strength (mol/kgw)  =   1.254e-03
                       Mass of water (kg)  =   1.887e+00
                 Total alkalinity (eq/kg)  =   3.480e-04
                       Total CO2 (mol/kg)  =   9.001e-06
                         Temperature (°C)  =  25.00
                  Electrical balance (eq)  =   1.862e-17
 Percent error, 100*(Cat-|An|)/(Cat+|An|)  =   0.00
                               Iterations  =   8
                                  Total H  = 2.094810e+02
                                  Total O  = 1.047406e+02

----------------------------Distribution of species----------------------------

                                               Log       Log       Log    mole V
   Species          Molality    Activity  Molality  Activity     Gamma   cm³/mol

   H+              1.163e-07   1.120e-07    -6.935    -6.951    -0.016      0.00
   OH-             9.305e-08   8.941e-08    -7.031    -7.049    -0.017     (0)  
   H2O             5.551e+01   1.000e+00     1.744    -0.000     0.000     18.07
Alanine       5.200e-05
   Alanine-2       5.200e-05   4.436e-05    -4.284    -4.353    -0.069     (0)  
   H2(Alanine)     4.121e-09   4.123e-09    -8.385    -8.385     0.000     (0)  
   H(Alanine)-     1.157e-09   1.112e-09    -8.937    -8.954    -0.017     (0)  
Amm           3.800e-05
   AmmH4+          3.782e-05   3.632e-05    -4.422    -4.440    -0.018     (0)  
   AmmH3           1.848e-07   1.848e-07    -6.733    -6.733     0.000     (0)  
   AmmH4SulfateO4-   1.598e-09   1.536e-09    -8.796    -8.814    -0.017     (0)  
C(4)          9.001e-06
   HCO3-           7.227e-06   6.949e-06    -5.141    -5.158    -0.017     (0)  
   CO2             1.749e-06   1.750e-06    -5.757    -5.757     0.000     (0)  
   CaHCO3+         1.441e-08   1.385e-08    -7.841    -7.858    -0.017     (0)  
   MgHCO3+         5.710e-09   5.487e-09    -8.243    -8.261    -0.017     (0)  
   CO3-2           3.404e-09   2.911e-09    -8.468    -8.536    -0.068     (0)  
   CaCO3           7.637e-10   7.639e-10    -9.117    -9.117     0.000     (0)  
   NaHCO3          4.281e-10   4.283e-10    -9.368    -9.368     0.000     (0)  
   MgCO3           1.874e-10   1.874e-10    -9.727    -9.727     0.000     (0)  
   NaCO3-          6.180e-12   5.940e-12   -11.209   -11.226    -0.017     (0)  
Ca            1.830e-04
   Ca+2            1.827e-04   1.562e-04    -3.738    -3.806    -0.068     (0)  
   CaHPO4          1.339e-07   1.339e-07    -6.873    -6.873     0.000     (0)  
   CaSulfateO4     1.023e-07   1.023e-07    -6.990    -6.990     0.000     (0)  
   CaHCO3+         1.441e-08   1.385e-08    -7.841    -7.858    -0.017     (0)  
   CaH2PO4+        1.173e-08   1.127e-08    -7.931    -7.948    -0.017     (0)  
   CaPO4-          2.944e-09   2.829e-09    -8.531    -8.548    -0.017     (0)  
   CaCO3           7.637e-10   7.639e-10    -9.117    -9.117     0.000     (0)  
   CaOH+           2.410e-10   2.316e-10    -9.618    -9.635    -0.017     (0)  
   CaHSulfateO4+   6.984e-14   6.712e-14   -13.156   -13.173    -0.017     (0)  
Cl            1.330e-04
   Cl-             1.330e-04   1.278e-04    -3.876    -3.893    -0.017     (0)  
   FerricCl+2      6.028e-16   5.142e-16   -15.220   -15.289    -0.069     (0)  
   FerricCl2+      3.055e-19   2.936e-19   -18.515   -18.532    -0.017     (0)  
   FerricCl3       3.751e-24   3.752e-24   -23.426   -23.426     0.000     (0)  
Cysteine      5.200e-05
   Cysteine-2      5.197e-05   4.433e-05    -4.284    -4.353    -0.069     (0)  
   H2(Cysteine)    3.348e-08   3.349e-08    -7.475    -7.475     0.000     (0)  
   H(Cysteine)-    2.649e-10   2.546e-10    -9.577    -9.594    -0.017     (0)  
Ferric        5.000e-05
   Ferric(OH)3     2.613e-05   2.614e-05    -4.583    -4.583     0.000     (0)  
   Ferric(OH)2+    2.364e-05   2.272e-05    -4.626    -4.644    -0.017     (0)  
   Ferric(OH)4-    2.215e-07   2.129e-07    -6.655    -6.672    -0.017     (0)  
   FerricOH+2      9.006e-09   7.683e-09    -8.045    -8.114    -0.069     (0)  
   Ferric+3        1.870e-13   1.332e-13   -12.728   -12.875    -0.147     (0)  
   FerricH2PO4+2   1.185e-13   1.011e-13   -12.926   -12.995    -0.069     (0)  
   FerricHPO4+     5.833e-14   5.605e-14   -13.234   -13.251    -0.017     (0)  
   FerricSulfateO4+   4.990e-15   4.795e-15   -14.302   -14.319    -0.017     (0)  
   Ferric2(OH)2+4   3.000e-15   1.589e-15   -14.523   -14.799    -0.276     (0)  
   FerricCl+2      6.028e-16   5.142e-16   -15.220   -15.289    -0.069     (0)  
   Ferric3(OH)4+5   2.036e-17   7.541e-18   -16.691   -17.123    -0.431     (0)  
   Ferric(SulfateO4)2-   3.583e-19   3.444e-19   -18.446   -18.463    -0.017     (0)  
   FerricCl2+      3.055e-19   2.936e-19   -18.515   -18.532    -0.017     (0)  
   FerricHSulfateO4+2   1.685e-21   1.438e-21   -20.773   -20.842    -0.069     (0)  
   FerricCl3       3.751e-24   3.752e-24   -23.426   -23.426     0.000     (0)  
Glutamine     5.200e-05
   Glutamine-2     5.200e-05   4.436e-05    -4.284    -4.353    -0.069     (0)  
   H(Glutamine)-   7.645e-10   7.347e-10    -9.117    -9.134    -0.017     (0)  
   H2(Glutamine)   7.500e-10   7.502e-10    -9.125    -9.125     0.000     (0)  
Glycine       5.200e-05
   Glycine-        5.200e-05   4.997e-05    -4.284    -4.301    -0.017     (0)  
   H2(Glycine)+    2.595e-09   2.494e-09    -8.586    -8.603    -0.017     (0)  
   H(Glycine)      1.224e-09   1.224e-09    -8.912    -8.912     0.000     (0)  
H(0)          1.775e-25
   H2              8.873e-26   8.875e-26   -25.052   -25.052     0.000     (0)  
K             2.800e-05
   K+              2.800e-05   2.691e-05    -4.553    -4.570    -0.017     (0)  
   KSulfateO4-     6.457e-10   6.206e-10    -9.190    -9.207    -0.017     (0)  
   KHPO4-          8.533e-11   8.200e-11   -10.069   -10.086    -0.017     (0)  
   KOH             8.329e-13   8.332e-13   -12.079   -12.079     0.000     (0)  
Methane       1.000e-06
   MethaneH4       1.000e-06   1.000e-06    -6.000    -6.000     0.000     (0)  
Mg            7.901e-05
   Mg+2            7.886e-05   6.748e-05    -4.103    -4.171    -0.068     (0)  
   MgHPO4          7.818e-08   7.820e-08    -7.107    -7.107     0.000     (0)  
   MgSulfateO4     5.192e-08   5.193e-08    -7.285    -7.285     0.000     (0)  
   MgH2PO4+        6.450e-09   6.199e-09    -8.190    -8.208    -0.017     (0)  
   MgHCO3+         5.710e-09   5.487e-09    -8.243    -8.261    -0.017     (0)  
   MgOH+           2.277e-09   2.188e-09    -8.643    -8.660    -0.017     (0)  
   MgPO4-          1.715e-09   1.649e-09    -8.766    -8.783    -0.017     (0)  
   MgCO3           1.874e-10   1.874e-10    -9.727    -9.727     0.000     (0)  
Na            1.140e-04
   Na+             1.140e-04   1.096e-04    -3.943    -3.960    -0.017     (0)  
   NaSulfateO4-    1.876e-09   1.803e-09    -8.727    -8.744    -0.017     (0)  
   NaHCO3          4.281e-10   4.283e-10    -9.368    -9.368     0.000     (0)  
   NaHPO4-         3.475e-10   3.340e-10    -9.459    -9.476    -0.017     (0)  
   NaOH            6.464e-12   6.466e-12   -11.189   -11.189     0.000     (0)  
   NaCO3-          6.180e-12   5.940e-12   -11.209   -11.226    -0.017     (0)  
O(0)          0.000e+00
   O2              0.000e+00   0.000e+00   -42.277   -42.276     0.000     (0)  
Ozero         5.111e-04
   Ozero2          2.556e-04   2.556e-04    -3.592    -3.592     0.000     (0)  
P             5.000e-06
   H2PO4-          2.933e-06   2.819e-06    -5.533    -5.550    -0.017     (0)  
   HPO4-2          1.832e-06   1.563e-06    -5.737    -5.806    -0.069     (0)  
   CaHPO4          1.339e-07   1.339e-07    -6.873    -6.873     0.000     (0)  
   MgHPO4          7.818e-08   7.820e-08    -7.107    -7.107     0.000     (0)  
   CaH2PO4+        1.173e-08   1.127e-08    -7.931    -7.948    -0.017     (0)  
   MgH2PO4+        6.450e-09   6.199e-09    -8.190    -8.208    -0.017     (0)  
   CaPO4-          2.944e-09   2.829e-09    -8.531    -8.548    -0.017     (0)  
   MgPO4-          1.715e-09   1.649e-09    -8.766    -8.783    -0.017     (0)  
   NaHPO4-         3.475e-10   3.340e-10    -9.459    -9.476    -0.017     (0)  
   KHPO4-          8.533e-11   8.200e-11   -10.069   -10.086    -0.017     (0)  
   PO4-3           9.000e-12   6.294e-12   -11.046   -11.201    -0.155     (0)  
   FerricH2PO4+2   1.185e-13   1.011e-13   -12.926   -12.995    -0.069     (0)  
   FerricHPO4+     5.833e-14   5.605e-14   -13.234   -13.251    -0.017     (0)  
Sulfate       4.000e-06
   SulfateO4-2     3.842e-06   3.283e-06    -5.415    -5.484    -0.068     (0)  
   CaSulfateO4     1.023e-07   1.023e-07    -6.990    -6.990     0.000     (0)  
   MgSulfateO4     5.192e-08   5.193e-08    -7.285    -7.285     0.000     (0)  
   NaSulfateO4-    1.876e-09   1.803e-09    -8.727    -8.744    -0.017     (0)  
   AmmH4SulfateO4-   1.598e-09   1.536e-09    -8.796    -8.814    -0.017     (0)  
   KSulfateO4-     6.457e-10   6.206e-10    -9.190    -9.207    -0.017     (0)  
   HSulfateO4-     3.718e-11   3.573e-11   -10.430   -10.447    -0.017     (0)  
   CaHSulfateO4+   6.984e-14   6.712e-14   -13.156   -13.173    -0.017     (0)  
   FerricSulfateO4+   4.990e-15   4.795e-15   -14.302   -14.319    -0.017     (0)  
   Ferric(SulfateO4)2-   3.583e-19   3.444e-19   -18.446   -18.463    -0.017     (0)  
   FerricHSulfateO4+2   1.685e-21   1.438e-21   -20.773   -20.842    -0.069     (0)  
Sulfide       1.000e-07
   HSulfide-       5.154e-08   4.952e-08    -7.288    -7.305    -0.017     (0)  
   H2Sulfide       4.847e-08   4.848e-08    -7.315    -7.314     0.000     (0)  
   Sulfide-2       6.251e-14   5.342e-14   -13.204   -13.272    -0.068     (0)  
Threonine     5.200e-05
   Threonine-2     5.200e-05   4.436e-05    -4.284    -4.353    -0.069     (0)  
   H2(Threonine)   7.330e-10   7.332e-10    -9.135    -9.135     0.000     (0)  
   H(Threonine)-   7.301e-10   7.016e-10    -9.137    -9.154    -0.017     (0)  
Tyrosine      5.200e-05
   Tyrosine-2      5.200e-05   4.436e-05    -4.284    -4.353    -0.069     (0)  
   H(Tyrosine)-    8.191e-10   7.872e-10    -9.087    -9.104    -0.017     (0)  
   H2(Tyrosine)    7.163e-10   7.165e-10    -9.145    -9.145     0.000     (0)  

------------------------------Saturation indices-------------------------------

  Phase               SI** log IAP   log K(298 K,   1 atm)

  FixpH            -6.95     -6.95    0.00  H+
  H2(g)           -21.90    -25.05   -3.15  H2
  H2O(g)           -1.51     -0.00    1.51  H2O
  Halite           -9.44     -7.85    1.58  NaCl
  Hydroxyapatite   -5.22     -8.65   -3.42  Ca5(PO4)3OH
  ORM             829.47    -49.76 -879.23  C5H4O2Amm
  redoxAnhydrite   -4.93     -9.29   -4.36  CaSulfateO4
  redoxAragonite   -4.01    -12.34   -8.34  CaCO3
  redoxCalcite     -3.86    -12.34   -8.48  CaCO3
  redoxCH4(g)      -3.14     -6.00   -2.86  MethaneH4
  redoxCO2(g)      -4.29     -5.76   -1.47  CO2
  redoxDolomite    -7.96    -25.05  -17.09  CaMg(CO3)2
  redoxFe(OH)3(a)   3.09      7.98    4.89  Ferric(OH)3
  redoxGoethite     8.98      7.98   -1.00  FerricOOH
  redoxGypsum      -4.71     -9.29   -4.58  CaSulfateO4:2H2O
  redoxH2S(g)      -6.32     -7.31   -1.00  H2Sulfide
  redoxHematite    19.96     15.95   -4.01  Ferric2O3
  redoxJarosite-K  -3.25    -12.46   -9.21  KFerric3(SulfateO4)2(OH)6
  redoxNH3(g)      -8.50     -6.73    1.77  AmmH3
  redoxO2(g)       -0.70     -3.59   -2.89  Ozero2
  redoxSulfur       9.71     14.59    4.88  Sulfide

**For a gas, SI = log10(fugacity). Fugacity = pressure * phi / 1 atm.
  For ideal gases, phi = 1.

------------------
End of simulation.
------------------

------------------------------------
Reading input data for simulation 2.
------------------------------------

	GAS_PHASE 1 fixed volume gas phase
	  fixed_volume
	  volume	   0.9  #(L)  calculate air pore space
	  temperature 	 25.0
	  redoxO2(g)   0.2
	  redoxCH4(g)  0.0
	  redoxCO2(g)  0.000316
	  SAVE GAS_PHASE 1
	END
------------------
End of simulation.
------------------

------------------------------------
Reading input data for simulation 3.
------------------------------------

	USE SOLUTION 1
	USE GAS_PHASE 1
	EXCHANGE_SPECIES
	 X- = X-
	 log_k 0     #semicolon is logical end of line
	 X- + AmmH4+ = AmmH4X
	  log_k  0.25   #define the half-reactions of ion change
	 2X- + Ca+2  = CaX2
	    log_k  0.4    $logK's relative 
	 2X- + Mg+2  = MgX2
	    log_k  0.5
	 X- + Na+  = NaX
	      log_k  0.0
	 X- + K+  = KX
	       log_k  0.2
	EXCHANGE 1   #exchanger in equilibirium 
	  X         16  #exchanger amount in mol
	  equilibrate with solution 1
	  exchange_gammas   true
	EQUILIBRIUM_PHASES 1
	  redoxCalcite      0  0.001     #CaCo3
	  redoxFeS(ppt)     0  0.001     #FeS
	  Hydroxyapatite    0  0.001     #Ca5(PO4)3OH
	  redoxPyrite       0  0.001     #FeS2
	  redoxFe(OH)3(a)   0  2   
	SURFACE 1
	 Hfo_wOH 2e-4  600  280  #site density (per nm2), SSA (m2/g), gram
	 Hfo_sOH 5e-6
	donnan 1e-8   #defuse layer thickness
	  H_a   3.837E-02  3.417E+04     80  ##gram of SOM for exchange
	  H_b   3.837E-02
	 H_c   3.837E-02
	 H_d  3.837E-02
	  H_e   1.919E-02
	 H_f   1.919E-02
	 H_g  1.919E-02
	 H_h  1.919E-02
	  H_ab  6.378E-02
	 H_ad  6.378E-02
	 H_af  6.378E-02
	 H_ah  6.378E-02
	  H_bc  6.378E-02
	 H_be  6.378E-02
	 H_bg  6.378E-05
	 H_cd  6.378E-05
	  H_cf  6.378E-02
	 H_ch  6.378E-02
	 H_de  6.378E-05
	 H_dg  6.378E-05
	 equilibrate with solution 1
	USE SOLUTION 1
	KINETICS  Decomposition  ##in mgC per g soil, redox reaction stoichiometry based on per biomassC
	cvode
	BA
	   m0   0.52
	   formula CH2O 0.0  
	   parms 1.04 0.25 0.001 0.4 0.02  #parm(1)=Vd, parm(2)=Kd, parm(3)=PEP, parm(4)=CUE, parm(5)=kb
	OAC
	   m0  0.001
	   formula CH2O 0.0   
	   parms  0.2  0.25
	Aero
	   formula CH2O 0.0   Ozero2  1.44   HCO3 -1.44  #C 2.44
	   parms  4   0.02  0.02   #Vmax, Koc, Ko2
	SulR
	   formula CH2O 0.0   SulfateO4-2  4.5   HSulfide-  -4.5  HCO3 -9    #C 10
	   parms  0.4   0.3   1   #Vmax, Koc, Kso4
	Meth
	   formula CH2O 0.0     MethaneH4 -20.24  HCO3 20.24   #C 41.48
	   parms  0.25   0.6  0.1   #Vmax, Koc, KI_O2
	POM
	   m0   4.71
	   formula CH2O 0.0  
	   parms 33.8  50  0  0.5   #vp1, kp1, Ip1, gD-fraction of dead BA to D
	MOM
	   m0   15.9
	   formula CH2O 0.0
	   parms 0.2  250 0.5   #vm, km, fD- fraction of decomposed p1/p2 to D
	DOM
	   m0   0.48
	   formula CH2O 0.0
	   parms  0.5  0.25  0
	QOM
	   m0   1.767
	   formula CH2O 0.0
	   parms 0.006 0.5  0.001   #adsorption constant, Qmax, desorption constant
	EP
	   m0   0.052
	   formula CH2O 0.0
	   parms  0.001
	EM
	   m0   0.052
	   formula CH2O 0.0
	   parms  0.001
	respiration
	   m0   0
	   formula CH2O 0.0 
	   parms  0.4
	Tot
	   m0   23.484
	   formula CH2O 0.0
	Salt  ##saltwater ion stoichiometry
	   m0   0.001
	   formula  CH2O 0.0   Cl-  -26  Sulfate  -2   Na+  -25   K+  -1    Ca+2  -2  Mg+2  -4   HCO3  -3  Nitrate -5 
	   parms 0.01  ## mol per gram soil per day
	Caero
	   m0   0
	   formula CH2O 0.0
	Csulr
	   m0   0
	   formula CH2O 0.0
	Cmeth
	   m0   0
	   formula CH2O 0.0
	   steps 100 in 100 steps #day
	  INCREMENTAL_REACTIONS true
	RATES
	BA
	   start
	    10 mDOM= kin("DOM")*0.8
	    20 bio = kin("BA")
	    30 uptake= parm(1)* bio * mDOM/(parm(2)+mDOM)   #parm(1)=Vd, parm(2)=Kd
	    40 put(uptake, 1) #microbil uptake flux                                      
	    50 decay=(1-parm(3)*2)*bio*parm(5)     #parm(3)=pEP=pEM (exoemzyme production rate); 0.1*Vd=biomass decay rate
	    60 put(decay, 2)                                           ##maintenance respiration
	    70 pexo = parm(3)*bio   #exoenzyme production enzyme production rate=0.1*Vd
	    80 put(pexo, 3)                                             ##mortality
	    90 rate = get(1)*parm(4)-get(2)-get(3)-get(3)+get(11)*get(11)/(get(11)+get(12)+get(13))+get(12)*get(12)/(get(11)+get(12)+get(13))+get(13)*get(13)/(get(11)+get(12)+get(13)) #parm(4)=CUE
	    100 save -rate * time 
	   end
	OAC
	   start
	    10 mDOM= kin("DOM")
	    20 rate = parm(1)* mDOM+parm(2)* get(2)-get(11)*2.44*get(11)/(get(11)+get(12)+get(13))-get(12)*10*get(12)/(get(11)+get(12)+get(13))-get(13)*41.48*get(13)/(get(11)+get(12)+get(13))  #C stoichiometry for redox reactions
	    30 put(rate, 14)
	    100 save -rate * time 
	   end
	Aero
	  start
	   10 mDOM= kin("OAC")/12
	   20 bio = kin("BA")/12
	   30 DO= mol("Ozero2")*1000
	   40 donor = mDOM/(parm(2)+mDOM)
	   50 accp = DO/(parm(3)+DO)
	   60 rate = parm(1)* bio * donor * accp
	   70 put(rate, 11)
	   80 final = rate*get(11)/(get(11)+get(12)+get(13))
	  100 save -final* time
	  end
	SulR
	  start
	   10 mDOM= kin("OAC")/12
	   20 bio = 0.6*kin("BA")/12
	   30 DO = mol("Ozero2")*1000
	   40 SO = mol("SulfateO4-2")*1000
	   50 donor = mDOM/(parm(2)+mDOM)
	   60 acc = SO/(parm(3)+SO)
	   70 rate = parm(1)* bio * donor * acc
	   80 put(rate, 12)
	   90 final = rate*get (12)/(get(11)+get(12)+get(13))
	  100 save -final * time
	  end
	Meth
	  start
	   10 mDOM= kin("OAC")/12
	   11 if(kin("OAC")<= 0.15) then mDOM=0
	   20 bio = 0.2*kin("BA")/12
	   30 DO = mol("Ozero2")*1000
	   50 donor = mDOM/(parm(2)+mDOM)
	   60 inhib = parm(3)/(DO+parm(3))
	   70 rate =  parm(1)* bio * donor 
	   80 put(rate, 13)
	   90 final = rate*get (13)/(get(11)+get(12)+get(13))
	  100 save -final * time
	  end
	POM
	   start
	    10 mPOM = kin("POM")
	    20 ep = kin("EP")
	    30 deco = parm(1) * ep * mPOM/(parm(2)+mPOM) # parm(1)=Vp, parm(2)=Kp
	    40 put (deco, 4)  #POM decomposition
	    50 rate = (1-parm(4))*get(2)-get(4)  #parm(3)=input, parm(4)=gD, fraction of decayed biomass C going to DOM pool
	    100 save -rate * time
	   end
	MOM
	   start
	    10 mMOM = kin("MOM")
	    20 em = kin("EM")
	    30 flux = parm(1) * em * mMOM /(parm(2)+ mMOM) # parm(1)=VM, parm(2)=KM
	    40 put(flux,5)  #MOM decomposition flux
	    50 rate = (1-parm(3))*get(4)-get(5)  #parm(3)=fD_fraction of decomposed P to D
	    100 save -rate*time
	   end
	DOM
	   start
	    10 rate = (1-parm(1))*get(4)+parm(2)* get(2)+get(5)+(get(8)+get(9))-get(1)-(get(6)-get(7))-get(14)
	    100 save -rate* time
	   end
	QOM
	   start
	    10 mQOM = kin("QOM")
	    20 D = kin("DOM")
	    30 flux1 = parm(1) * (1-mQOM/parm(2))* D #adsorption flux, parm(1)=adsorption constant, parm(2)=Qmax
	    40 put(flux1,6)  #adsorption flux
	    50 flux2 = parm(3) * (mQOM/parm(2)) #parm(3)=desorption constant, parm(2)=Qmax
	    60 put(flux2,7)  #desorption flux
	    70 rate = get(6)-get(7)
	    100 save -rate * time
	   end
	EP
	   start
	    10 ep = kin("EP")
	    20 flux1 = parm(1)*ep #enzyme decay
	    30 put (flux1,8)
	    40 rate = get(3)-get(8)
	    100 save -rate * time
	   end
	EM
	   start
	    10 em = kin("EM")
	    20 flux1= parm(1)* em
	    30 put (flux1,9)
	    40 rate = get(3)-get(9)
	    100  save -rate * time
	   end
	respiration
	   start
	    10 rate = (1- parm(1))*get(1)+(get(11)*1.44*get(11)/(get(11)+get(12)+get(13))+get(12)*9*get(12)/(get(11)+get(12)+get(13))-get(13)*20.24*get(13)/(get(11)+get(12)+get(13)))*12 #parm(1)=CUE
	    20 put (rate, 10)
	    30 save -rate * time
	   end
	Tot
	   start
	    10 rate = -get(10)-(GAS('redoxCH4(g)')+tot('CH4'))*12
	    20 save -rate * time
	   end
	Salt
	   start
	    10 salt=kin("salt")
	    20 rate = parm(1)*(0.10-salt)   ## The incoming concentration is important
	    30 save -rate * time
	   end
	Caero
	   start
	    10 rate = get(11)*2.44
	    30 save -rate * time
	   end
	Csulr
	   start
	    10 rate = get(12)*10
	    30 save -rate * time
	   end
	Cmeth
	   start
	    10 rate = get(13)*41.48
	    30 save -rate * time
	   end
	SELECTED_OUTPUT
	  reset false
	  file closed_redox_sw2.txt
	USER_PUNCH
	  start
	  heading Time pH  Ozero HS CH4 CO2g CO2 SC  fsl1  fsl2  fsl3  fsl4 POM MOM QOM DOM BA EP EM IC Total OrgAcid Aero SulR Meth Caero Csulr Cmeth Na  K  Ca  Mg  PO4  Cl  SO4 NH4 HCO3 FeS Pyrite 
	  10 PUNCH SIM_TIME
	  20 PUNCH -la("H+")
	  30 PUNCH mol("Ozero2")  tot('Sulfide')
	  40 PUNCH GAS('redoxCH4(g)')+tot('CH4')  GAS('redoxCO2(g)')  tot('C(4)')
	  50 PUNCH CALC_VALUE ("SC_T25")
	  60 PUNCH CALC_VALUE("fsl1")  CALC_VALUE("fsl2")  CALC_VALUE("fsl3")  CALC_VALUE("fsl4")
	  70 PUNCH kin('POM') kin('MOM') kin('QOM') kin('DOM') kin('BA') kin('EP') kin('EM') 
	  80 PUNCH kin('respiration') kin("Tot") kin('OAC') kin('Aero')  kin('SulR')  kin('Meth')
	  90 PUNCH kin('Caero') kin('Csulr') kin('Cmeth')
	  100 PUNCH tot("Na")  tot("K")  mol("Ca+2")  tot("Mg") tot("P")  tot("Cl")  tot("Sulfate") tot ("Amm")  tot("C(4)")
	  110 PUNCH equi("redoxFeS(ppt)")  equi("redoxPyrite")
	  end
	END
-------------------------------------------------------
Beginning of initial exchange-composition calculations.
-------------------------------------------------------

Exchange 1.	

X                1.600e+01 mol

	                               Equiv-    Equivalent      Log 
	Species             Moles      alents      Fraction     Gamma

	CaX2              5.136e+00   1.027e+01   6.421e-01     0.000
	MgX2              2.793e+00   5.586e+00   3.491e-01     0.000
	NaX               7.092e-02   7.092e-02   4.433e-03     0.000
	AmmH4X            4.180e-02   4.180e-02   2.612e-03     0.000
	KX                2.760e-02   2.760e-02   1.725e-03     0.000
	HX                7.524e-04   7.524e-04   4.703e-05    -0.016

------------------------------------------------------
Beginning of initial surface-composition calculations.
------------------------------------------------------

Surface 1.	

Diffuse Double Layer Surface-Complexation Model

H             
	  1.144e-09  Surface + diffuse layer charge, eq
	 -5.139e-01  Surface charge, eq
	 -1.814e-02  sigma, C/m²
	 -1.120e-01  psi, V
	  4.360e+00  -F*psi/RT
	  7.824e+01  exp(-F*psi/RT)
	  3.417e+04  specific area, m²/g
	  2.734e+06  m² for   8.000e+01 g

	Water in diffuse layer: 2.734e+01 kg, 94.2% of total DDL-water.

	Total moles in diffuse layer (excluding water), Donnan calculation.
	Donnan Layer potential, psi_DL = -4.521e-02 V.
	Boltzmann factor, exp(-psi_DL * F / RT) = 5.811e+00 (= c_DL / c_free if z is +1).

	Element       	     Moles
	Alanine       	  4.2219e-05
	Amm           	  6.0117e-03
	C             	  8.5044e-05
	Ca            	  1.6867e-01
	Cl            	  6.2575e-04
	Cysteine      	  4.2994e-05
	Ferric        	  4.4787e-03
	Glutamine     	  4.2128e-05
	Glycine       	  2.4508e-04
	H             	  3.3920e-02
	K             	  4.4476e-03
	Methane       	  2.7338e-05
	Mg            	  7.2787e-02
	Na            	  1.8108e-02
	O             	  9.9991e-03
	Ozero         	  1.3973e-02
	P             	  2.3987e-05
	Sulfate       	  7.3458e-06
	Sulfide       	  1.5674e-06
	Threonine     	  4.2127e-05
	Tyrosine      	  4.2127e-05

H_a           
	  3.837e-02  moles
	                                   Mole                     Log
	Species               Moles    Fraction    Molality    Molality

	H_a-              3.718e-02       0.969   1.971e-02      -1.705
	H_aCa+            8.730e-04       0.023   4.626e-04      -3.335
	H_aMg+            2.995e-04       0.008   1.587e-04      -3.799
	H_aH              1.267e-05       0.000   6.716e-06      -5.173

H_ab          
	  6.378e-02  moles
	                                   Mole                     Log
	Species               Moles    Fraction    Molality    Molality

	H_ab-2            6.291e-02       0.986   3.334e-02      -1.477
	H_abCa            4.670e-04       0.007   2.475e-04      -3.606
	H_abH-            2.762e-04       0.004   1.464e-04      -3.835
	H_abMg            1.273e-04       0.002   6.745e-05      -4.171
	H_abH2            9.414e-08       0.000   4.989e-08      -7.302

H_ad          
	  6.378e-02  moles
	                                   Mole                     Log
	Species               Moles    Fraction    Molality    Molality

	H_adCa            2.400e-02       0.376   1.272e-02      -1.896
	H_ad-2            1.904e-02       0.298   1.009e-02      -1.996
	H_adH-            1.419e-02       0.223   7.522e-03      -2.124
	H_adMg            6.541e-03       0.103   3.467e-03      -2.460
	H_adH2            4.838e-06       0.000   2.564e-06      -5.591

H_af          
	  6.378e-02  moles
	                                   Mole                     Log
	Species               Moles    Fraction    Molality    Molality

	H_afH-            5.540e-02       0.869   2.936e-02      -1.532
	H_afCa            8.348e-03       0.131   4.424e-03      -2.354
	H_afH2            1.888e-05       0.000   1.001e-05      -5.000
	H_af-2            1.205e-05       0.000   6.385e-06      -5.195
	H_afMg            3.864e-06       0.000   2.048e-06      -5.689

H_ah          
	  6.378e-02  moles
	                                   Mole                     Log
	Species               Moles    Fraction    Molality    Molality

	H_ahH-            6.374e-02       0.999   3.378e-02      -1.471
	H_ahH2            2.172e-05       0.000   1.151e-05      -4.939
	H_ahCa            1.708e-05       0.000   9.052e-06      -5.043
	H_ahMg            4.446e-06       0.000   2.356e-06      -5.628
	H_ah-2            2.896e-09       0.000   1.535e-09      -8.814

H_b           
	  3.837e-02  moles
	                                   Mole                     Log
	Species               Moles    Fraction    Molality    Molality

	H_b-              2.720e-02       0.709   1.441e-02      -1.841
	H_bCa+            8.227e-03       0.214   4.360e-03      -2.361
	H_bMg+            2.823e-03       0.074   1.496e-03      -2.825
	H_bH              1.194e-04       0.003   6.329e-05      -4.199

H_bc          
	  6.378e-02  moles
	                                   Mole                     Log
	Species               Moles    Fraction    Molality    Molality

	H_bcCa            3.020e-02       0.474   1.601e-02      -1.796
	H_bc-2            2.395e-02       0.376   1.269e-02      -1.896
	H_bcMg            8.231e-03       0.129   4.362e-03      -2.360
	H_bcH-            1.386e-03       0.022   7.348e-04      -3.134
	H_bcH2            6.088e-06       0.000   3.226e-06      -5.491

H_be          
	  6.378e-02  moles
	                                   Mole                     Log
	Species               Moles    Fraction    Molality    Molality

	H_beH-            6.230e-02       0.977   3.301e-02      -1.481
	H_be-2            9.374e-04       0.015   4.968e-04      -3.304
	H_beH2            2.735e-04       0.004   1.450e-04      -3.839
	H_beCa            2.151e-04       0.003   1.140e-04      -3.943
	H_beMg            5.598e-05       0.001   2.966e-05      -4.528

H_bg          
	  6.378e-05  moles
	                                   Mole                     Log
	Species               Moles    Fraction    Molality    Molality

	H_bgH-            6.323e-05       0.991   3.351e-05      -4.475
	H_bgH2            2.776e-07       0.004   1.471e-07      -6.832
	H_bgCa            2.183e-07       0.003   1.157e-07      -6.937
	H_bgMg            5.681e-08       0.001   3.011e-08      -7.521
	H_bg-2            1.988e-10       0.000   1.053e-10      -9.977

H_c           
	  3.837e-02  moles
	                                   Mole                     Log
	Species               Moles    Fraction    Molality    Molality

	H_cCa+            2.386e-02       0.622   1.264e-02      -1.898
	H_cMg+            8.185e-03       0.213   4.337e-03      -2.363
	H_c-              5.983e-03       0.156   3.171e-03      -2.499
	H_cH              3.463e-04       0.009   1.835e-04      -3.736

H_cd          
	  6.378e-05  moles
	                                   Mole                     Log
	Species               Moles    Fraction    Molality    Molality

	H_cdCa            4.979e-05       0.781   2.639e-05      -4.579
	H_cdMg            1.357e-05       0.213   7.192e-06      -5.143
	H_cd-2            2.326e-07       0.004   1.232e-07      -6.909
	H_cdH-            1.734e-07       0.003   9.189e-08      -7.037
	H_cdH2            1.004e-08       0.000   5.319e-09      -8.274

H_cf          
	  6.378e-02  moles
	                                   Mole                     Log
	Species               Moles    Fraction    Molality    Molality

	H_cfH-            5.718e-02       0.896   3.030e-02      -1.519
	H_cfH2            3.309e-03       0.052   1.754e-03      -2.756
	H_cfCa            2.602e-03       0.041   1.379e-03      -2.860
	H_cfMg            6.773e-04       0.011   3.589e-04      -3.445
	H_cf-2            1.244e-05       0.000   6.591e-06      -5.181

H_ch          
	  6.378e-02  moles
	                                   Mole                     Log
	Species               Moles    Fraction    Molality    Molality

	H_chH-            5.719e-02       0.897   3.031e-02      -1.518
	H_chH2            3.310e-03       0.052   1.754e-03      -2.756
	H_chCa            2.603e-03       0.041   1.379e-03      -2.860
	H_chMg            6.774e-04       0.011   3.590e-04      -3.445
	H_ch-2            2.599e-09       0.000   1.377e-09      -8.861

H_d           
	  3.837e-02  moles
	                                   Mole                     Log
	Species               Moles    Fraction    Molality    Molality

	H_dCa+            2.786e-02       0.726   1.477e-02      -1.831
	H_dMg+            9.560e-03       0.249   5.066e-03      -2.295
	H_d-              5.425e-04       0.014   2.875e-04      -3.541
	H_dH              4.045e-04       0.011   2.144e-04      -3.669

H_de          
	  6.378e-05  moles
	                                   Mole                     Log
	Species               Moles    Fraction    Molality    Molality

	H_deH-            2.552e-05       0.400   1.352e-05      -4.869
	H_deH2            1.903e-05       0.298   1.008e-05      -4.996
	H_deCa            1.496e-05       0.235   7.928e-06      -5.101
	H_deMg            3.894e-06       0.061   2.063e-06      -5.685
	H_de-2            3.840e-07       0.006   2.035e-07      -6.691

H_dg          
	  6.378e-05  moles
	                                   Mole                     Log
	Species               Moles    Fraction    Molality    Molality

	H_dgH-            2.567e-05       0.402   1.360e-05      -4.866
	H_dgH2            1.914e-05       0.300   1.014e-05      -4.994
	H_dgCa            1.505e-05       0.236   7.976e-06      -5.098
	H_dgMg            3.917e-06       0.061   2.076e-06      -5.683
	H_dg-2            8.071e-11       0.000   4.277e-11     -10.369

H_e           
	  1.919e-02  moles
	                                   Mole                     Log
	Species               Moles    Fraction    Molality    Molality

	H_eH              1.863e-02       0.971   9.875e-03      -2.005
	H_e-              2.804e-04       0.015   1.486e-04      -3.828
	H_eCa+            2.082e-04       0.011   1.103e-04      -3.957
	H_eMg+            6.666e-05       0.003   3.533e-05      -4.452

H_f           
	  1.919e-02  moles
	                                   Mole                     Log
	Species               Moles    Fraction    Molality    Molality

	H_fH              1.891e-02       0.985   1.002e-02      -1.999
	H_fCa+            2.112e-04       0.011   1.119e-04      -3.951
	H_fMg+            6.763e-05       0.004   3.584e-05      -4.446
	H_f-              4.112e-06       0.000   2.179e-06      -5.662

H_g           
	  1.919e-02  moles
	                                   Mole                     Log
	Species               Moles    Fraction    Molality    Molality

	H_gH              1.891e-02       0.985   1.002e-02      -1.999
	H_gCa+            2.113e-04       0.011   1.120e-04      -3.951
	H_gMg+            6.765e-05       0.004   3.585e-05      -4.446
	H_g-              5.945e-08       0.000   3.151e-08      -7.502

H_h           
	  1.919e-02  moles
	                                   Mole                     Log
	Species               Moles    Fraction    Molality    Molality

	H_hH              1.891e-02       0.985   1.002e-02      -1.999
	H_hCa+            2.113e-04       0.011   1.120e-04      -3.951
	H_hMg+            6.765e-05       0.004   3.585e-05      -4.446
	H_h-              8.594e-10       0.000   4.554e-10      -9.342

Hfo           
	 -9.038e-14  Surface + diffuse layer charge, eq
	 -7.866e-06  Surface charge, eq
	 -4.518e-06  sigma, C/m²
	 -5.587e-05  psi, V
	  2.175e-03  -F*psi/RT
	  1.002e+00  exp(-F*psi/RT)
	  6.000e+02  specific area, m²/g
	  1.680e+05  m² for   2.800e+02 g

	Water in diffuse layer: 1.680e+00 kg,  5.8% of total DDL-water.

	Total moles in diffuse layer (excluding water), Donnan calculation.
	Donnan Layer potential, psi_DL = -4.796e-05 V.
	Boltzmann factor, exp(-psi_DL * F / RT) = 1.002e+00 (= c_DL / c_free if z is +1).

	Element       	     Moles
	Alanine       	  8.7041e-05
	Amm           	  6.3963e-05
	C             	  1.5098e-05
	Ca            	  3.0861e-04
	Cl            	  2.2304e-04
	Cysteine      	  8.7041e-05
	Ferric        	  8.4079e-05
	Glutamine     	  8.7041e-05
	Glycine       	  8.7203e-05
	H             	  5.0128e-04
	K             	  4.7131e-05
	Methane       	  1.6801e-06
	Mg            	  1.3322e-04
	Na            	  1.9189e-04
	O             	  3.1561e-04
	Ozero         	  8.5873e-04
	P             	  8.3800e-06
	Sulfate       	  6.6964e-06
	Sulfide       	  1.6785e-07
	Threonine     	  8.7041e-05
	Tyrosine      	  8.7041e-05

Hfo_s         
	  5.000e-06  moles
	                                   Mole                     Log
	Species               Moles    Fraction    Molality    Molality

	Hfo_sOHCa+2       4.104e-06       0.821   2.175e-06      -5.663
	Hfo_sOH2+         6.131e-07       0.123   3.249e-07      -6.488
	Hfo_sOH           2.802e-07       0.056   1.485e-07      -6.828
	Hfo_sO-           2.934e-09       0.001   1.555e-09      -8.808

Hfo_w         
	  2.000e-04  moles
	                                   Mole                     Log
	Species               Moles    Fraction    Molality    Molality

	Hfo_wOH2+         7.692e-05       0.385   4.076e-05      -4.390
	Hfo_wHPO4-        6.795e-05       0.340   3.601e-05      -4.444
	Hfo_wOH           3.516e-05       0.176   1.863e-05      -4.730
	Hfo_wPO4-2        1.295e-05       0.065   6.861e-06      -5.164
	Hfo_wH2PO4        6.056e-06       0.030   3.209e-06      -5.494
	Hfo_wOMg+         5.334e-07       0.003   2.827e-07      -6.549
	Hfo_wO-           3.681e-07       0.002   1.951e-07      -6.710
	Hfo_wOCa+         6.945e-08       0.000   3.680e-08      -7.434
	Hfo_wSulfateO4-   7.769e-10       0.000   4.117e-10      -9.385
	Hfo_wOHSulfateO4-2   7.085e-10       0.000   3.755e-10      -9.425

-----------------------------------------
Beginning of batch-reaction calculations.
-----------------------------------------

Reaction step 1.

WARNING: Zero divide in BASIC line
 90  rate = get(1)*parm(4)-get(2)-get(3)-get(3)+get(11)*get(11)/(get(11)+get(12)+get(13))+get(12)*get(12)/(get(11)+get(12)+get(13))+get(13)*get(13)/(get(11)+get(12)+get(13)).
Value set to zero.
WARNING: Zero divide in BASIC line
 90  rate = get(1)*parm(4)-get(2)-get(3)-get(3)+get(11)*get(11)/(get(11)+get(12)+get(13))+get(12)*get(12)/(get(11)+get(12)+get(13))+get(13)*get(13)/(get(11)+get(12)+get(13)).
Value set to zero.
WARNING: Zero divide in BASIC line
 90  rate = get(1)*parm(4)-get(2)-get(3)-get(3)+get(11)*get(11)/(get(11)+get(12)+get(13))+get(12)*get(12)/(get(11)+get(12)+get(13))+get(13)*get(13)/(get(11)+get(12)+get(13)).
Value set to zero.
WARNING: Zero divide in BASIC line
 20  rate = parm(1)* mDOM+parm(2)* get(2)-get(11)*2.44*get(11)/(get(11)+get(12)+get(13))-get(12)*10*get(12)/(get(11)+get(12)+get(13))-get(13)*41.48*get(13)/(get(11)+get(12)+get(13)).
Value set to zero.
WARNING: Zero divide in BASIC line
 20  rate = parm(1)* mDOM+parm(2)* get(2)-get(11)*2.44*get(11)/(get(11)+get(12)+get(13))-get(12)*10*get(12)/(get(11)+get(12)+get(13))-get(13)*41.48*get(13)/(get(11)+get(12)+get(13)).
Value set to zero.
WARNING: Zero divide in BASIC line
 20  rate = parm(1)* mDOM+parm(2)* get(2)-get(11)*2.44*get(11)/(get(11)+get(12)+get(13))-get(12)*10*get(12)/(get(11)+get(12)+get(13))-get(13)*41.48*get(13)/(get(11)+get(12)+get(13)).
Value set to zero.
WARNING: CVode incomplete at cvode_steps 100. Cell: 0	Time: 8.204056e-01	Cvode calls: 1, continuing...

Using solution 1.	
Using exchange 1.	Exchange assemblage after simulation 3.
Using surface 1.	
Using pure phase assemblage 1.	
Using gas phase 1.	fixed volume gas phase
Using kinetics 1.	Decomposition  

Kinetics 1.	Decomposition  

	Time step: 1 seconds  (Incremented time: 1 seconds)

	Rate name       Delta Moles Total Moles   Reactant        Coefficient

	BA                1.216e-01   6.416e-01   CH2O                      0
	OAC               4.487e-02   4.587e-02   CH2O                      0
	Aero              1.059e-02   1.011e+00   CH2O                      0
	                                          HCO3                  -1.44
	                                          Ozero2                 1.44
	SulR              5.090e-07   1.000e+00   CH2O                      0
	                                          HCO3                     -9
	                                          HSulfide-              -4.5
	                                          SulfateO4-2             4.5
	Meth             -0.000e+00   1.000e+00   CH2O                      0
	                                          HCO3                  20.24
	                                          MethaneH4            -20.24
	POM              -1.441e-01   4.566e+00   CH2O                      0
	MOM               7.433e-02   1.597e+01   CH2O                      0
	DOM              -2.671e-01   2.129e-01   CH2O                      0
	QOM              -8.663e-03   1.758e+00   CH2O                      0
	EP                5.309e-04   5.253e-02   CH2O                      0
	EM                5.309e-04   5.253e-02   CH2O                      0
	respiration       3.688e-01   3.688e-01   CH2O                      0
	Tot              -3.690e-01   2.312e+01   CH2O                      0
	Salt              9.851e-04   1.985e-03   CH2O                      0
	                                          Ca+2                     -2
	                                          Cl-                     -26
	                                          HCO3                     -3
	                                          K+                       -1
	                                          Mg+2                     -4
	                                          Na+                     -25
	                                          Nitrate                  -5
	                                          Sulfate                  -2
	Caero             2.587e-02   2.587e-02   CH2O                      0
	Csulr             8.683e-05   8.683e-05   CH2O                      0
	Cmeth            -0.000e+00   0.000e+00   CH2O                      0

-----------------------------------Gas phase-----------------------------------

Total pressure:  0.01      atmospheres 
    Gas volume:   9.00e-01 liters
  Molar volume:   2.49e+03 liters/mole

                                                        Moles in gas
                                            ----------------------------------
Component                log P           P     Initial       Final       Delta

redoxCH4(g)              -3.41   3.893e-04   0.000e+00   1.432e-05   1.432e-05
redoxCO2(g)              -2.02   9.446e-03   1.162e-05   3.475e-04   3.359e-04
redoxO2(g)               -5.02   9.452e-06   7.357e-03   3.477e-07  -7.357e-03

-------------------------------Phase assemblage--------------------------------

                                                      Moles in assemblage
Phase               SI  log IAP  log K(T, P)   Initial       Final       Delta

Hydroxyapatite    0.00    -3.42     -3.42    1.000e-03   3.772e-04  -6.228e-04
redoxCalcite     -1.61   -10.09     -8.48    1.000e-03           0  -1.000e-03
redoxFe(OH)3(a)    0.00     4.89      4.89    2.000e+00   2.005e+00   4.653e-03
redoxFeS(ppt)    -2.42    -6.34     -3.92    1.000e-03           0  -1.000e-03
redoxPyrite       0.00   -18.48    -18.48    1.000e-03   1.418e-03   4.179e-04

------------------------------Surface composition------------------------------

Diffuse Double Layer Surface-Complexation Model

H             
	 -4.195e-09  Surface + diffuse layer charge, eq
	 -5.817e-01  Surface charge, eq
	 -2.053e-02  sigma, C/m²
	 -8.189e-02  psi, V
	  3.188e+00  -F*psi/RT
	  2.423e+01  exp(-F*psi/RT)
	  3.417e+04  specific area, m²/g
	  2.734e+06  m² for   8.000e+01 g

	Water in diffuse layer: 2.734e+01 kg, 94.2% of total DDL-water.

	Total moles in diffuse layer (excluding water), Donnan calculation.
	Donnan Layer potential, psi_DL = -2.463e-02 V.
	Boltzmann factor, exp(-psi_DL * F / RT) = 2.609e+00 (= c_DL / c_free if z is +1).

	Element       	     Moles
	Alanine       	  1.2096e-04
	Amm           	  6.2999e-03
	C             	  1.5685e-02
	Ca            	  2.0387e-01
	Cl            	  1.9946e-02
	Cysteine      	  1.2220e-04
	Ferric        	  3.9004e-06
	Ferrous       	  1.5563e-05
	Glutamine     	  1.2082e-04
	Glycine       	  3.2153e-04
	H             	  6.2170e-02
	K             	  4.7918e-03
	Methane       	  1.4671e-05
	Mg            	  8.7720e-02
	Na            	  2.3985e-02
	Nitrate       	  3.6779e-03
	O             	  6.0347e-02
	Ozero         	  6.6130e-07
	P             	  1.4056e-03
	Sulfate       	  1.3516e-03
	Sulfide       	  1.4473e-04
	Threonine     	  1.2081e-04
	Tyrosine      	  1.2081e-04

H_a           
	  3.837e-02  moles
	                                   Mole                     Log
	Species               Moles    Fraction    Molality    Molality

	H_a-              3.778e-02       0.985   2.002e-02      -1.698
	H_aCa+            4.355e-04       0.011   2.308e-04      -3.637
	H_aMg+            1.493e-04       0.004   7.913e-05      -4.102
	H_aH              9.168e-06       0.000   4.859e-06      -5.313

H_ab          
	  6.378e-02  moles
	                                   Mole                     Log
	Species               Moles    Fraction    Molality    Molality

	H_ab-2            6.329e-02       0.992   3.354e-02      -1.474
	H_abCa            2.307e-04       0.004   1.223e-04      -3.913
	H_abH-            1.979e-04       0.003   1.049e-04      -3.979
	H_abMg            6.283e-05       0.001   3.330e-05      -4.478
	H_abH2            4.802e-08       0.000   2.545e-08      -7.594

H_ad          
	  6.378e-02  moles
	                                   Mole                     Log
	Species               Moles    Fraction    Molality    Molality

	H_ad-2            2.751e-02       0.431   1.458e-02      -1.836
	H_adCa            1.703e-02       0.267   9.026e-03      -2.045
	H_adH-            1.460e-02       0.229   7.741e-03      -2.111
	H_adMg            4.637e-03       0.073   2.458e-03      -2.609
	H_adH2            3.544e-06       0.000   1.879e-06      -5.726

H_af          
	  6.378e-02  moles
	                                   Mole                     Log
	Species               Moles    Fraction    Molality    Molality

	H_afH-            5.774e-02       0.905   3.061e-02      -1.514
	H_afCa            6.001e-03       0.094   3.181e-03      -2.497
	H_af-2            1.764e-05       0.000   9.349e-06      -5.029
	H_afH2            1.401e-05       0.000   7.428e-06      -5.129
	H_afMg            2.775e-06       0.000   1.471e-06      -5.832

H_ah          
	  6.378e-02  moles
	                                   Mole                     Log
	Species               Moles    Fraction    Molality    Molality

	H_ahH-            6.375e-02       1.000   3.379e-02      -1.471
	H_ahH2            1.547e-05       0.000   8.200e-06      -5.086
	H_ahCa            1.178e-05       0.000   6.245e-06      -5.205
	H_ahMg            3.064e-06       0.000   1.624e-06      -5.789
	H_ah-2            4.068e-09       0.000   2.156e-09      -8.666

H_b           
	  3.837e-02  moles
	                                   Mole                     Log
	Species               Moles    Fraction    Molality    Molality

	H_b-              3.191e-02       0.832   1.691e-02      -1.772
	H_bCa+            4.739e-03       0.124   2.512e-03      -2.600
	H_bMg+            1.624e-03       0.042   8.610e-04      -3.065
	H_bH              9.976e-05       0.003   5.287e-05      -4.277

H_bc          
	  6.378e-02  moles
	                                   Mole                     Log
	Species               Moles    Fraction    Molality    Molality

	H_bc-2            3.487e-02       0.547   1.848e-02      -1.733
	H_bcCa            2.159e-02       0.338   1.144e-02      -1.941
	H_bcMg            5.879e-03       0.092   3.116e-03      -2.506
	H_bcH-            1.437e-03       0.023   7.617e-04      -3.118
	H_bcH2            4.493e-06       0.000   2.382e-06      -5.623

H_be          
	  6.378e-02  moles
	                                   Mole                     Log
	Species               Moles    Fraction    Molality    Molality

	H_beH-            6.209e-02       0.973   3.291e-02      -1.483
	H_be-2            1.312e-03       0.021   6.954e-04      -3.158
	H_beH2            1.941e-04       0.003   1.029e-04      -3.988
	H_beCa            1.478e-04       0.002   7.835e-05      -4.106
	H_beMg            3.844e-05       0.001   2.037e-05      -4.691

H_bg          
	  6.378e-05  moles
	                                   Mole                     Log
	Species               Moles    Fraction    Molality    Molality

	H_bgH-            6.339e-05       0.994   3.360e-05      -4.474
	H_bgH2            1.982e-07       0.003   1.050e-07      -6.979
	H_bgCa            1.509e-07       0.002   7.999e-08      -7.097
	H_bgMg            3.925e-08       0.001   2.080e-08      -7.682
	H_bg-2            2.799e-10       0.000   1.483e-10      -9.829

H_c           
	  3.837e-02  moles
	                                   Mole                     Log
	Species               Moles    Fraction    Molality    Molality

	H_cCa+            2.047e-02       0.533   1.085e-02      -1.965
	H_c-              1.045e-02       0.272   5.541e-03      -2.256
	H_cMg+            7.017e-03       0.183   3.719e-03      -2.430
	H_cH              4.309e-04       0.011   2.284e-04      -3.641

H_cd          
	  6.378e-05  moles
	                                   Mole                     Log
	Species               Moles    Fraction    Molality    Molality

	H_cdCa            4.955e-05       0.777   2.626e-05      -4.581
	H_cdMg            1.349e-05       0.212   7.152e-06      -5.146
	H_cd-2            4.713e-07       0.007   2.498e-07      -6.602
	H_cdH-            2.502e-07       0.004   1.326e-07      -6.877
	H_cdH2            1.031e-08       0.000   5.466e-09      -8.262

H_cf          
	  6.378e-02  moles
	                                   Mole                     Log
	Species               Moles    Fraction    Molality    Molality

	H_cfH-            5.900e-02       0.925   3.127e-02      -1.505
	H_cfH2            2.432e-03       0.038   1.289e-03      -2.890
	H_cfCa            1.852e-03       0.029   9.814e-04      -3.008
	H_cfMg            4.815e-04       0.008   2.552e-04      -3.593
	H_cf-2            1.802e-05       0.000   9.551e-06      -5.020

H_ch          
	  6.378e-02  moles
	                                   Mole                     Log
	Species               Moles    Fraction    Molality    Molality

	H_chH-            5.901e-02       0.925   3.128e-02      -1.505
	H_chH2            2.432e-03       0.038   1.289e-03      -2.890
	H_chCa            1.852e-03       0.029   9.817e-04      -3.008
	H_chMg            4.816e-04       0.008   2.553e-04      -3.593
	H_ch-2            3.766e-09       0.000   1.996e-09      -8.700

H_d           
	  3.837e-02  moles
	                                   Mole                     Log
	Species               Moles    Fraction    Molality    Molality

	H_dCa+            2.734e-02       0.713   1.449e-02      -1.839
	H_dMg+            9.372e-03       0.244   4.967e-03      -2.304
	H_d-              1.084e-03       0.028   5.745e-04      -3.241
	H_dH              5.755e-04       0.015   3.050e-04      -3.516

H_de          
	  6.378e-05  moles
	                                   Mole                     Log
	Species               Moles    Fraction    Molality    Molality

	H_deH-            3.094e-05       0.485   1.640e-05      -4.785
	H_deH2            1.643e-05       0.258   8.706e-06      -5.060
	H_deCa            1.251e-05       0.196   6.630e-06      -5.178
	H_deMg            3.253e-06       0.051   1.724e-06      -5.763
	H_de-2            6.538e-07       0.010   3.465e-07      -6.460

H_dg          
	  6.378e-05  moles
	                                   Mole                     Log
	Species               Moles    Fraction    Molality    Molality

	H_dgH-            3.126e-05       0.490   1.657e-05      -4.781
	H_dgH2            1.660e-05       0.260   8.797e-06      -5.056
	H_dgCa            1.264e-05       0.198   6.699e-06      -5.174
	H_dgMg            3.287e-06       0.052   1.742e-06      -5.759
	H_dg-2            1.380e-10       0.000   7.315e-11     -10.136

H_e           
	  1.919e-02  moles
	                                   Mole                     Log
	Species               Moles    Fraction    Molality    Molality

	H_eH              1.861e-02       0.970   9.862e-03      -2.006
	H_e-              3.932e-04       0.020   2.084e-04      -3.681
	H_eCa+            1.434e-04       0.007   7.598e-05      -4.119
	H_eMg+            4.586e-05       0.002   2.431e-05      -4.614

H_f           
	  1.919e-02  moles
	                                   Mole                     Log
	Species               Moles    Fraction    Molality    Molality

	H_fH              1.899e-02       0.990   1.007e-02      -1.997
	H_fCa+            1.463e-04       0.008   7.755e-05      -4.110
	H_fMg+            4.681e-05       0.002   2.481e-05      -4.605
	H_f-              5.801e-06       0.000   3.075e-06      -5.512

H_g           
	  1.919e-02  moles
	                                   Mole                     Log
	Species               Moles    Fraction    Molality    Molality

	H_gH              1.900e-02       0.990   1.007e-02      -1.997
	H_gCa+            1.464e-04       0.008   7.757e-05      -4.110
	H_gMg+            4.682e-05       0.002   2.482e-05      -4.605
	H_g-              8.387e-08       0.000   4.445e-08      -7.352

H_h           
	  1.919e-02  moles
	                                   Mole                     Log
	Species               Moles    Fraction    Molality    Molality

	H_hH              1.900e-02       0.990   1.007e-02      -1.997
	H_hCa+            1.464e-04       0.008   7.757e-05      -4.110
	H_hMg+            4.682e-05       0.002   2.482e-05      -4.605
	H_h-              1.212e-09       0.000   6.426e-10      -9.192

Hfo           
	 -9.635e-13  Surface + diffuse layer charge, eq
	 -1.394e-04  Surface charge, eq
	 -8.007e-05  sigma, C/m²
	 -4.728e-04  psi, V
	  1.840e-02  -F*psi/RT
	  1.019e+00  exp(-F*psi/RT)
	  6.000e+02  specific area, m²/g
	  1.680e+05  m² for   2.800e+02 g

	Water in diffuse layer: 1.680e+00 kg,  5.8% of total DDL-water.

	Total moles in diffuse layer (excluding water), Donnan calculation.
	Donnan Layer potential, psi_DL = -1.932e-04 V.
	Boltzmann factor, exp(-psi_DL * F / RT) = 1.008e+00 (= c_DL / c_free if z is +1).

	Element       	     Moles
	Alanine       	  4.9732e-05
	Amm           	  1.4990e-04
	C             	  1.5552e-03
	Ca            	  1.9135e-03
	Cl            	  3.1740e-03
	Cysteine      	  4.9517e-05
	Ferric        	  1.1464e-07
	Ferrous       	  1.5701e-07
	Glutamine     	  4.9757e-05
	Glycine       	  5.1082e-05
	H             	  3.6419e-03
	K             	  1.1381e-04
	Methane       	  9.0163e-07
	Mg            	  8.2688e-04
	Na            	  5.6967e-04
	Nitrate       	  5.8525e-04
	O             	  7.8442e-03
	Ozero         	  4.0642e-08
	P             	  1.9214e-04
	Sulfate       	  2.9840e-04
	Sulfide       	  1.1099e-05
	Threonine     	  4.9757e-05
	Tyrosine      	  4.9758e-05

Hfo_s         
	  5.000e-06  moles
	                                   Mole                     Log
	Species               Moles    Fraction    Molality    Molality

	Hfo_sOHCa+2       4.633e-06       0.927   2.455e-06      -5.610
	Hfo_sOH2+         3.058e-07       0.061   1.621e-07      -6.790
	Hfo_sOH           5.981e-08       0.012   3.170e-08      -7.499
	Hfo_sOFerrous+    1.577e-09       0.000   8.357e-10      -9.078
	Hfo_sO-           2.679e-10       0.000   1.420e-10      -9.848

Hfo_w         
	  2.000e-04  moles
	                                   Mole                     Log
	Species               Moles    Fraction    Molality    Molality

	Hfo_wHPO4-        1.411e-04       0.705   7.476e-05      -4.126
	Hfo_wH2PO4        2.938e-05       0.147   1.557e-05      -4.808
	Hfo_wOH2+         1.499e-05       0.075   7.946e-06      -5.100
	Hfo_wPO4-2        1.150e-05       0.058   6.095e-06      -5.215
	Hfo_wOH           2.932e-06       0.015   1.554e-06      -5.809
	Hfo_wOMg+         1.006e-07       0.001   5.332e-08      -7.273
	Hfo_wO-           1.314e-08       0.000   6.962e-09      -8.157
	Hfo_wOCa+         1.311e-08       0.000   6.947e-09      -8.158
	Hfo_wSulfateO4-   4.995e-09       0.000   2.647e-09      -8.577
	Hfo_wOHSulfateO4-2   1.949e-09       0.000   1.033e-09      -8.986
	Hfo_wOFerrous+    7.214e-10       0.000   3.824e-10      -9.418
	Hfo_wOFerrousOH   7.403e-12       0.000   3.924e-12     -11.406

-----------------------------Exchange composition------------------------------

X                1.600e+01 mol

	                               Equiv-    Equivalent      Log 
	Species             Moles      alents      Fraction     Gamma

	CaX2              5.132e+00   1.026e+01   6.415e-01     0.000
	MgX2              2.788e+00   5.576e+00   3.485e-01     0.000
	NaX               8.887e-02   8.887e-02   5.555e-03     0.000
	AmmH4X            4.133e-02   4.133e-02   2.583e-03     0.000
	KX                2.810e-02   2.810e-02   1.756e-03     0.000
	HX                7.905e-04   7.905e-04   4.941e-05    -0.031
	FerrousX2         5.662e-04   1.132e-03   7.077e-05    -0.132

-----------------------------Solution composition------------------------------

	Elements           Molality       Moles

	Alanine           3.005e-05   5.670e-05
	Amm               8.856e-05   1.671e-04
	C                 9.301e-04   1.755e-03
	Ca                1.122e-03   2.118e-03
	Cl                1.904e-03   3.591e-03
	Cysteine          2.992e-05   5.645e-05
	Ferric            6.789e-08   1.281e-07
	Ferrous           9.219e-08   1.739e-07
	Glutamine         3.007e-05   5.673e-05
	Glycine           3.064e-05   5.780e-05
	K                 6.724e-05   1.269e-04
	Methane           5.367e-07   1.013e-06
	Mg                4.851e-04   9.152e-04
	Na                3.366e-04   6.350e-04
	Nitrate           3.510e-04   6.622e-04
	Ozero             2.419e-08   4.564e-08
	P                 1.153e-04   2.175e-04
	Sulfate           1.799e-04   3.394e-04
	Sulfide           6.623e-06   1.249e-05
	Threonine         3.007e-05   5.673e-05
	Tyrosine          3.007e-05   5.673e-05

----------------------------Description of solution----------------------------

                                       pH  =   6.589      Charge balance
                                       pe  =  -6.514      Adjusted to redox equilibrium
      Specific Conductance (µS/cm,  25°C)  = 400
                        Activity of water  =   1.000
                 Ionic strength (mol/kgw)  =   5.502e-03
                       Mass of water (kg)  =   1.887e+00
                 Total alkalinity (eq/kg)  =   8.278e-04
                       Total CO2 (mol/kg)  =   9.301e-04
                         Temperature (°C)  =  25.00
                           Pressure (atm)  =  0.01
                  Electrical balance (eq)  =   4.149e-09
 Percent error, 100*(Cat-|An|)/(Cat+|An|)  =   0.00
                               Iterations  = 817
                                  Total H  = 2.094534e+02
                                  Total O  = 1.047335e+02

----------------------------Distribution of species----------------------------

                                               Log       Log       Log    mole V
   Species          Molality    Activity  Molality  Activity     Gamma   cm³/mol

   H+              2.765e-07   2.575e-07    -6.558    -6.589    -0.031      0.00
   OH-             4.213e-08   3.888e-08    -7.375    -7.410    -0.035     (0)  
   H2O             5.551e+01   9.999e-01     1.744    -0.000     0.000     18.07
Alanine       3.005e-05
   Alanine-2       3.004e-05   2.189e-05    -4.522    -4.660    -0.138     (0)  
   H2(Alanine)     1.074e-08   1.075e-08    -7.969    -7.968     0.001     (0)  
   H(Alanine)-     1.365e-09   1.261e-09    -8.865    -8.899    -0.034     (0)  
Amm           8.856e-05
   AmmH4+          8.825e-05   8.130e-05    -4.054    -4.090    -0.036     (0)  
   AmmH3           1.797e-07   1.799e-07    -6.745    -6.745     0.001     (0)  
   AmmH4SulfateO4-   1.268e-07   1.171e-07    -6.897    -6.931    -0.034     (0)  
C(4)          9.301e-04
   HCO3-           6.000e-04   5.555e-04    -3.222    -3.255    -0.033     (0)  
   CO2             3.212e-04   3.216e-04    -3.493    -3.493     0.001     (0)  
   CaHCO3+         6.124e-06   5.670e-06    -5.213    -5.246    -0.033     (0)  
   MgHCO3+         2.429e-06   2.244e-06    -5.615    -5.649    -0.034     (0)  
   CO3-2           1.377e-07   1.012e-07    -6.861    -6.995    -0.134     (0)  
   CaCO3           1.358e-07   1.360e-07    -6.867    -6.866     0.001     (0)  
   NaHCO3          9.700e-08   9.712e-08    -7.013    -7.013     0.001     (0)  
   MgCO3           3.330e-08   3.334e-08    -7.478    -7.477     0.001     (0)  
   FerrousHCO3+    3.571e-09   3.299e-09    -8.447    -8.482    -0.034     (0)  
   NaCO3-          6.341e-10   5.858e-10    -9.198    -9.232    -0.034     (0)  
   FerrousCO3      1.440e-10   1.442e-10    -9.842    -9.841     0.001     (0)  
Ca            1.122e-03
   Ca+2            1.089e-03   8.000e-04    -2.963    -3.097    -0.134     (0)  
   CaSulfateO4     1.783e-05   1.785e-05    -4.749    -4.748     0.001     (0)  
   CaHPO4          7.534e-06   7.543e-06    -5.123    -5.122     0.001     (0)  
   CaHCO3+         6.124e-06   5.670e-06    -5.213    -5.246    -0.033     (0)  
   CaH2PO4+        1.580e-06   1.460e-06    -5.801    -5.836    -0.034     (0)  
   CaCO3           1.358e-07   1.360e-07    -6.867    -6.866     0.001     (0)  
   CaPO4-          7.503e-08   6.932e-08    -7.125    -7.159    -0.034     (0)  
   CaOH+           5.581e-10   5.156e-10    -9.253    -9.288    -0.034     (0)  
   CaHSulfateO4+   2.914e-11   2.693e-11   -10.535   -10.570    -0.034     (0)  
Cl            1.904e-03
   Cl-             1.904e-03   1.757e-03    -2.720    -2.755    -0.035     (0)  
   FerrousCl+      1.559e-10   1.441e-10    -9.807    -9.841    -0.034     (0)  
   FerricCl+2      9.673e-17   7.048e-17   -16.014   -16.152    -0.138     (0)  
   FerricCl2+      5.987e-19   5.531e-19   -18.223   -18.257    -0.034     (0)  
   FerricCl3       9.707e-23   9.719e-23   -22.013   -22.012     0.001     (0)  
Cysteine      2.992e-05
   Cysteine-2      2.983e-05   2.174e-05    -4.525    -4.663    -0.138     (0)  
   H2(Cysteine)    8.671e-08   8.682e-08    -7.062    -7.061     0.001     (0)  
   H(Cysteine)-    3.106e-10   2.870e-10    -9.508    -9.542    -0.034     (0)  
Ferric        6.789e-08
   Ferric(OH)2+    4.636e-08   4.283e-08    -7.334    -7.368    -0.034     (0)  
   Ferric(OH)3     2.140e-08   2.143e-08    -7.670    -7.669     0.001     (0)  
   Ferric(OH)4-    8.215e-11   7.590e-11   -10.085   -10.120    -0.034     (0)  
   FerricOH+2      4.571e-11   3.330e-11   -10.340   -10.477    -0.138     (0)  
   FerricH2PO4+2   3.499e-14   2.549e-14   -13.456   -13.594    -0.138     (0)  
   FerricHPO4+     6.655e-15   6.148e-15   -14.177   -14.211    -0.034     (0)  
   Ferric+3        2.527e-15   1.328e-15   -14.597   -14.877    -0.279     (0)  
   FerricSulfateO4+   1.763e-15   1.629e-15   -14.754   -14.788    -0.034     (0)  
   FerricCl+2      9.673e-17   7.048e-17   -16.014   -16.152    -0.138     (0)  
   Ferric(SulfateO4)2-   4.314e-18   3.985e-18   -17.365   -17.400    -0.034     (0)  
   FerricCl2+      5.987e-19   5.531e-19   -18.223   -18.257    -0.034     (0)  
   Ferric2(OH)2+4   1.059e-19   2.986e-20   -18.975   -19.525    -0.550     (0)  
   FerricHSulfateO4+2   1.541e-21   1.123e-21   -20.812   -20.950    -0.138     (0)  
   FerricCl3       9.707e-23   9.719e-23   -22.013   -22.012     0.001     (0)  
   Ferric3(OH)4+5   1.933e-24   2.672e-25   -23.714   -24.573    -0.859     (0)  
Ferrous       9.219e-08
   Ferrous+2       8.049e-08   5.939e-08    -7.094    -7.226    -0.132     (0)  
   FerrousHPO4     4.061e-09   4.066e-09    -8.391    -8.391     0.001     (0)  
   FerrousHCO3+    3.571e-09   3.299e-09    -8.447    -8.482    -0.034     (0)  
   FerrousH2PO4+   2.298e-09   2.123e-09    -8.639    -8.673    -0.034     (0)  
   FerrousSulfateO4   1.180e-09   1.181e-09    -8.928    -8.928     0.001     (0)  
   Ferrous(HSulfide)2   2.088e-10   2.091e-10    -9.680    -9.680     0.001     (0)  
   FerrousCl+      1.559e-10   1.441e-10    -9.807    -9.841    -0.034     (0)  
   FerrousCO3      1.440e-10   1.442e-10    -9.842    -9.841     0.001     (0)  
   FerrousOH+      7.895e-11   7.294e-11   -10.103   -10.137    -0.034     (0)  
   Ferrous(HSulfide)3-   4.899e-14   4.526e-14   -13.310   -13.344    -0.034     (0)  
   FerrousHSulfateO4+   2.164e-15   1.999e-15   -14.665   -14.699    -0.034     (0)  
Glutamine     3.007e-05
   Glutamine-2     3.006e-05   2.190e-05    -4.522    -4.659    -0.138     (0)  
   H2(Glutamine)   1.956e-09   1.959e-09    -8.709    -8.708     0.001     (0)  
   H(Glutamine)-   9.028e-10   8.341e-10    -9.044    -9.079    -0.034     (0)  
Glycine       3.064e-05
   Glycine-        3.063e-05   2.830e-05    -4.514    -4.548    -0.034     (0)  
   H2(Glycine)+    8.082e-09   7.467e-09    -8.092    -8.127    -0.034     (0)  
   H(Glycine)      1.592e-09   1.594e-09    -8.798    -8.798     0.001     (0)  
H(0)          9.997e-04
   H2              4.998e-04   5.005e-04    -3.301    -3.301     0.001     (0)  
K             6.724e-05
   K+              6.718e-05   6.201e-05    -4.173    -4.208    -0.035     (0)  
   KSulfateO4-     5.275e-08   4.873e-08    -7.278    -7.312    -0.034     (0)  
   KHPO4-          2.251e-09   2.080e-09    -8.648    -8.682    -0.034     (0)  
   KOH             8.340e-13   8.351e-13   -12.079   -12.078     0.001     (0)  
Methane       5.367e-07
   MethaneH4       5.367e-07   5.374e-07    -6.270    -6.270     0.001     (0)  
Mg            4.851e-04
   Mg+2            4.683e-04   3.453e-04    -3.330    -3.462    -0.132     (0)  
   MgSulfateO4     9.040e-06   9.052e-06    -5.044    -5.043     0.001     (0)  
   MgHPO4          4.396e-06   4.402e-06    -5.357    -5.356     0.001     (0)  
   MgHCO3+         2.429e-06   2.244e-06    -5.615    -5.649    -0.034     (0)  
   MgH2PO4+        8.684e-07   8.023e-07    -6.061    -6.096    -0.034     (0)  
   MgPO4-          4.368e-08   4.036e-08    -7.360    -7.394    -0.034     (0)  
   MgCO3           3.330e-08   3.334e-08    -7.478    -7.477     0.001     (0)  
   MgOH+           5.269e-09   4.868e-09    -8.278    -8.313    -0.034     (0)  
Na            3.366e-04
   Na+             3.363e-04   3.109e-04    -3.473    -3.507    -0.034     (0)  
   NaSulfateO4-    1.886e-07   1.743e-07    -6.724    -6.759    -0.034     (0)  
   NaHCO3          9.700e-08   9.712e-08    -7.013    -7.013     0.001     (0)  
   NaHPO4-         1.128e-08   1.043e-08    -7.948    -7.982    -0.034     (0)  
   NaCO3-          6.341e-10   5.858e-10    -9.198    -9.232    -0.034     (0)  
   NaOH            7.967e-12   7.977e-12   -11.099   -11.098     0.001     (0)  
Nitrate       3.510e-04
   NitrateO3-      3.510e-04   3.243e-04    -3.455    -3.489    -0.034     (0)  
O(0)          0.000e+00
   O2              0.000e+00   0.000e+00   -85.779   -85.779     0.001     (0)  
Ozero         2.419e-08
   Ozero2          1.210e-08   1.211e-08    -7.917    -7.917     0.001     (0)  
P             1.153e-04
   H2PO4-          7.714e-05   7.132e-05    -4.113    -4.147    -0.034     (0)  
   HPO4-2          2.362e-05   1.720e-05    -4.627    -4.765    -0.138     (0)  
   CaHPO4          7.534e-06   7.543e-06    -5.123    -5.122     0.001     (0)  
   MgHPO4          4.396e-06   4.402e-06    -5.357    -5.356     0.001     (0)  
   CaH2PO4+        1.580e-06   1.460e-06    -5.801    -5.836    -0.034     (0)  
   MgH2PO4+        8.684e-07   8.023e-07    -6.061    -6.096    -0.034     (0)  
   CaPO4-          7.503e-08   6.932e-08    -7.125    -7.159    -0.034     (0)  
   MgPO4-          4.368e-08   4.036e-08    -7.360    -7.394    -0.034     (0)  
   NaHPO4-         1.128e-08   1.043e-08    -7.948    -7.982    -0.034     (0)  
   FerrousHPO4     4.061e-09   4.066e-09    -8.391    -8.391     0.001     (0)  
   FerrousH2PO4+   2.298e-09   2.123e-09    -8.639    -8.673    -0.034     (0)  
   KHPO4-          2.251e-09   2.080e-09    -8.648    -8.682    -0.034     (0)  
   PO4-3           6.152e-11   3.011e-11   -10.211   -10.521    -0.310     (0)  
   FerricH2PO4+2   3.499e-14   2.549e-14   -13.456   -13.594    -0.138     (0)  
   FerricHPO4+     6.655e-15   6.148e-15   -14.177   -14.211    -0.034     (0)  
Sulfate       1.799e-04
   SulfateO4-2     1.527e-04   1.118e-04    -3.816    -3.951    -0.135     (0)  
   CaSulfateO4     1.783e-05   1.785e-05    -4.749    -4.748     0.001     (0)  
   MgSulfateO4     9.040e-06   9.052e-06    -5.044    -5.043     0.001     (0)  
   NaSulfateO4-    1.886e-07   1.743e-07    -6.724    -6.759    -0.034     (0)  
   AmmH4SulfateO4-   1.268e-07   1.171e-07    -6.897    -6.931    -0.034     (0)  
   KSulfateO4-     5.275e-08   4.873e-08    -7.278    -7.312    -0.034     (0)  
   HSulfateO4-     3.030e-09   2.800e-09    -8.519    -8.553    -0.034     (0)  
   FerrousSulfateO4   1.180e-09   1.181e-09    -8.928    -8.928     0.001     (0)  
   CaHSulfateO4+   2.914e-11   2.693e-11   -10.535   -10.570    -0.034     (0)  
   FerrousHSulfateO4+   2.164e-15   1.999e-15   -14.665   -14.699    -0.034     (0)  
   FerricSulfateO4+   1.763e-15   1.629e-15   -14.754   -14.788    -0.034     (0)  
   Ferric(SulfateO4)2-   4.314e-18   3.985e-18   -17.365   -17.400    -0.034     (0)  
   FerricHSulfateO4+2   1.541e-21   1.123e-21   -20.812   -20.950    -0.138     (0)  
Sulfide       6.623e-06
   H2Sulfide       4.468e-06   4.474e-06    -5.350    -5.349     0.001     (0)  
   HSulfide-       2.154e-06   1.988e-06    -5.667    -5.702    -0.035     (0)  
   Ferrous(HSulfide)2   2.088e-10   2.091e-10    -9.680    -9.680     0.001     (0)  
   Sulfide-2       1.272e-12   9.324e-13   -11.895   -12.030    -0.135     (0)  
   Ferrous(HSulfide)3-   4.899e-14   4.526e-14   -13.310   -13.344    -0.034     (0)  
Threonine     3.007e-05
   Threonine-2     3.006e-05   2.190e-05    -4.522    -4.659    -0.138     (0)  
   H2(Threonine)   1.912e-09   1.914e-09    -8.719    -8.718     0.001     (0)  
   H(Threonine)-   8.622e-10   7.966e-10    -9.064    -9.099    -0.034     (0)  
Tyrosine      3.007e-05
   Tyrosine-2      3.006e-05   2.190e-05    -4.522    -4.659    -0.138     (0)  
   H2(Tyrosine)    1.868e-09   1.870e-09    -8.729    -8.728     0.001     (0)  
   H(Tyrosine)-    9.674e-10   8.938e-10    -9.014    -9.049    -0.034     (0)  

------------------------------Saturation indices-------------------------------

  Phase               SI** log IAP   log K(298 K,   0 atm)

  FixpH            -6.59     -6.59    0.00  H+
  H2(g)            -0.15     -3.30   -3.15  H2
  H2O(g)           -1.51     -0.00    1.51  H2O
  Halite           -7.84     -6.26    1.58  NaCl
  Hydroxyapatite    0.00     -3.42   -3.42  Ca5(PO4)3OH
  ORM             761.73   -117.50 -879.23  C5H4O2Amm
  redoxAnhydrite   -2.69     -7.05   -4.36  CaSulfateO4
  redoxAragonite   -1.76    -10.09   -8.34  CaCO3
  redoxCalcite     -1.61    -10.09   -8.48  CaCO3
  redoxCH4(g)      -3.41     -6.27   -2.86  MethaneH4
  redoxCO2(g)      -2.02     -3.49   -1.47  CO2
  redoxDolomite    -3.46    -20.55  -17.09  CaMg(CO3)2
  redoxFe(OH)3(a)   0.00      4.89    4.89  Ferric(OH)3
  redoxFeS(ppt)    -2.42     -6.34   -3.92  FerrousSulfide
  redoxGoethite     5.89      4.89   -1.00  FerricOOH
  redoxGypsum      -2.47     -7.05   -4.58  CaSulfateO4:2H2O
  redoxH2S(g)      -4.35     -5.35   -1.00  H2Sulfide
  redoxHematite    13.79      9.78   -4.01  Ferric2O3
  redoxJarosite-K  -8.00    -17.21   -9.21  KFerric3(SulfateO4)2(OH)6
  redoxMackinawite  -1.69     -6.34   -4.65  FerrousSulfide
  redoxMelanterite  -8.97    -11.18   -2.21  FerrousSulfateO4:7H2O
  redoxNH3(g)      -8.51     -6.74    1.77  AmmH3
  redoxO2(g)       -5.02     -7.92   -2.89  Ozero2
  redoxPyrite       0.00    -18.48  -18.48  FerrousSulfide2
  redoxSiderite    -3.33    -14.22  -10.89  FerrousCO3
  redoxSulfur     -10.08     -5.20    4.88  Sulfide
  redoxVivianite   -6.72    -42.72  -36.00  Ferrous3(PO4)2:8H2O

**For a gas, SI = log10(fugacity). Fugacity = pressure * phi / 1 atm.
  For ideal gases, phi = 1.

Reaction step 2.

Using solution 1.	
Using exchange 1.	Exchange assemblage after simulation 3.
Using surface 1.	
Using pure phase assemblage 1.	
Using gas phase 1.	fixed volume gas phase
Using kinetics 1.	Decomposition  

Kinetics 1.	Decomposition  

	Time step: 1 seconds  (Incremented time: 2 seconds)

	Rate name       Delta Moles Total Moles   Reactant        Coefficient

	BA                6.451e-02   7.061e-01   CH2O                      0
	OAC               2.845e-02   7.433e-02   CH2O                      0
	Aero              4.886e-07   1.011e+00   CH2O                      0
	                                          HCO3                  -1.44
	                                          Ozero2                 1.44
	SulR              3.604e-05   1.000e+00   CH2O                      0
	                                          HCO3                     -9
	                                          HSulfide-              -4.5
	                                          SulfateO4-2             4.5
	Meth             -0.000e+00   1.000e+00   CH2O                      0
	                                          HCO3                  20.24
	                                          MethaneH4            -20.24
	POM              -1.405e-01   4.425e+00   CH2O                      0
	MOM               7.302e-02   1.605e+01   CH2O                      0
	DOM              -1.437e-01   6.920e-02   CH2O                      0
	QOM              -5.427e-03   1.753e+00   CH2O                      0
	EP                6.258e-04   5.316e-02   CH2O                      0
	EM                6.258e-04   5.316e-02   CH2O                      0
	respiration       1.230e-01   4.918e-01   CH2O                      0
	Tot              -1.231e-01   2.299e+01   CH2O                      0
	Salt              9.753e-04   2.960e-03   CH2O                      0
	                                          Ca+2                     -2
	                                          Cl-                     -26
	                                          HCO3                     -3
	                                          K+                       -1
	                                          Mg+2                     -4
	                                          Na+                     -25
	                                          Nitrate                  -5
	                                          Sulfate                  -2
	Caero             6.590e-06   2.587e-02   CH2O                      0
	Csulr             3.826e-04   4.694e-04   CH2O                      0
	Cmeth            -0.000e+00   0.000e+00   CH2O                      0

-----------------------------------Gas phase-----------------------------------

Total pressure:  0.01      atmospheres 
    Gas volume:   9.00e-01 liters
  Molar volume:   2.16e+03 liters/mole

                                                        Moles in gas
                                            ----------------------------------
Component                log P           P     Initial       Final       Delta

redoxCH4(g)              -3.41   3.894e-04   1.432e-05   1.432e-05   4.570e-09
redoxCO2(g)              -1.96   1.095e-02   3.475e-04   4.029e-04   5.538e-05
redoxO2(g)               -6.63   2.348e-07   3.477e-07   8.636e-09  -3.391e-07

-------------------------------Phase assemblage--------------------------------

                                                      Moles in assemblage
Phase               SI  log IAP  log K(T, P)   Initial       Final       Delta

Hydroxyapatite    0.00    -3.42     -3.42    3.772e-04   4.447e-04   6.749e-05
redoxCalcite     -1.51    -9.99     -8.48    0.000e+00           0   0.000e+00
redoxFe(OH)3(a)   -0.00     4.89      4.89    2.005e+00   2.005e+00   4.894e-08
redoxFeS(ppt)    -2.23    -6.15     -3.92    0.000e+00           0   0.000e+00
redoxPyrite       0.00   -18.48    -18.48    1.418e-03   1.450e-03   3.186e-05

------------------------------Surface composition------------------------------

Diffuse Double Layer Surface-Complexation Model

H             
	 -2.112e-09  Surface + diffuse layer charge, eq
	 -6.019e-01  Surface charge, eq
	 -2.125e-02  sigma, C/m²
	 -7.465e-02  psi, V
	  2.906e+00  -F*psi/RT
	  1.828e+01  exp(-F*psi/RT)
	  3.417e+04  specific area, m²/g
	  2.734e+06  m² for   8.000e+01 g

	Water in diffuse layer: 2.734e+01 kg, 94.2% of total DDL-water.

	Total moles in diffuse layer (excluding water), Donnan calculation.
	Donnan Layer potential, psi_DL = -2.039e-02 V.
	Boltzmann factor, exp(-psi_DL * F / RT) = 2.211e+00 (= c_DL / c_free if z is +1).

	Element       	     Moles
	Alanine       	  1.3915e-04
	Amm           	  6.4227e-03
	C             	  1.8609e-02
	Ca            	  2.1897e-01
	Cl            	  4.0429e-02
	Cysteine      	  1.4026e-04
	Ferric        	  3.8264e-06
	Ferrous       	  1.4978e-05
	Glutamine     	  1.3901e-04
	Glycine       	  3.3430e-04
	H             	  1.0375e-01
	K             	  5.0226e-03
	Methane       	  1.4667e-05
	Mg            	  9.4201e-02
	Na            	  2.9560e-02
	Nitrate       	  7.6106e-03
	O             	  8.4757e-02
	Ozero         	  1.6415e-08
	P             	  1.2985e-03
	Sulfate       	  2.7670e-03
	Sulfide       	  2.3077e-04
	Threonine     	  1.3901e-04
	Tyrosine      	  1.3901e-04

H_a           
	  3.837e-02  moles
	                                   Mole                     Log
	Species               Moles    Fraction    Molality    Molality

	H_a-              3.789e-02       0.988   2.009e-02      -1.697
	H_aCa+            3.508e-04       0.009   1.860e-04      -3.731
	H_aMg+            1.204e-04       0.003   6.383e-05      -4.195
	H_aH              7.886e-06       0.000   4.180e-06      -5.379

H_ab          
	  6.378e-02  moles
	                                   Mole                     Log
	Species               Moles    Fraction    Molality    Molality

	H_ab-2            6.337e-02       0.994   3.360e-02      -1.474
	H_abCa            1.856e-04       0.003   9.837e-05      -4.007
	H_abH-            1.699e-04       0.003   9.007e-05      -4.045
	H_abMg            5.058e-05       0.001   2.682e-05      -4.572
	H_abH2            3.536e-08       0.000   1.875e-08      -7.727

H_ad          
	  6.378e-02  moles
	                                   Mole                     Log
	Species               Moles    Fraction    Molality    Molality

	H_ad-2            3.054e-02       0.479   1.619e-02      -1.791
	H_adCa            1.519e-02       0.238   8.051e-03      -2.094
	H_adH-            1.391e-02       0.218   7.372e-03      -2.132
	H_adMg            4.140e-03       0.065   2.195e-03      -2.659
	H_adH2            2.894e-06       0.000   1.534e-06      -5.814

H_af          
	  6.378e-02  moles
	                                   Mole                     Log
	Species               Moles    Fraction    Molality    Molality

	H_afH-            5.809e-02       0.911   3.080e-02      -1.512
	H_afCa            5.654e-03       0.089   2.997e-03      -2.523
	H_af-2            2.069e-05       0.000   1.097e-05      -4.960
	H_afH2            1.209e-05       0.000   6.409e-06      -5.193
	H_afMg            2.618e-06       0.000   1.388e-06      -5.858

H_ah          
	  6.378e-02  moles
	                                   Mole                     Log
	Species               Moles    Fraction    Molality    Molality

	H_ahH-            6.375e-02       1.000   3.380e-02      -1.471
	H_ahH2            1.327e-05       0.000   7.034e-06      -5.153
	H_ahCa            1.104e-05       0.000   5.850e-06      -5.233
	H_ahMg            2.873e-06       0.000   1.523e-06      -5.817
[...]
	Species               Moles    Fraction    Molality    Molality

	H_fH              1.899e-02       0.990   1.019e-02      -1.992
	H_fCa+            1.269e-04       0.007   6.814e-05      -4.167
	H_fMg+            4.490e-05       0.002   2.410e-05      -4.618
	H_f-              2.566e-05       0.001   1.377e-05      -4.861

H_g           
	  1.919e-02  moles
	                                   Mole                     Log
	Species               Moles    Fraction    Molality    Molality

	H_gH              1.902e-02       0.991   1.021e-02      -1.991
	H_gCa+            1.271e-04       0.007   6.823e-05      -4.166
	H_gMg+            4.496e-05       0.002   2.413e-05      -4.617
	H_g-              3.714e-07       0.000   1.994e-07      -6.700

H_h           
	  1.919e-02  moles
	                                   Mole                     Log
	Species               Moles    Fraction    Molality    Molality

	H_hH              1.902e-02       0.991   1.021e-02      -1.991
	H_hCa+            1.271e-04       0.007   6.823e-05      -4.166
	H_hMg+            4.496e-05       0.002   2.413e-05      -4.617
	H_h-              5.369e-09       0.000   2.882e-09      -8.540

Hfo           
	  8.465e-13  Surface + diffuse layer charge, eq
	  7.579e-05  Surface charge, eq
	  4.353e-05  sigma, C/m²
	  5.856e-05  psi, V
	 -2.279e-03  -F*psi/RT
	  9.977e-01  exp(-F*psi/RT)
	  6.000e+02  specific area, m²/g
	  1.680e+05  m² for   2.800e+02 g

	Water in diffuse layer: 1.680e+00 kg,  5.8% of total DDL-water.

	Total moles in diffuse layer (excluding water), Donnan calculation.
	Donnan Layer potential, psi_DL =  5.456e-06 V.
	Boltzmann factor, exp(-psi_DL * F / RT) = 9.998e-01 (= c_DL / c_free if z is +1).

	Element       	     Moles
	Alanine       	  1.5179e-05
	Amm           	  5.4103e-04
	C             	  1.4833e-02
	Ca            	  3.4864e-02
	Cl            	  9.8201e-02
	Cysteine      	  1.5220e-05
	Ferric        	  1.8260e-07
	Ferrous       	  3.5461e-08
	Glutamine     	  1.5174e-05
	Glycine       	  2.5956e-05
	H             	  1.8011e-01
	K             	  1.1414e-03
	Methane       	  1.4521e-03
	Mg            	  1.5972e-02
	Na            	  2.7187e-02
	Nitrate       	  1.8872e-02
	O             	  1.0065e-01
	Ozero         	  1.4828e-11
	P             	  2.5681e-05
	Sulfate       	  1.2663e-03
	Sulfide       	  5.7718e-03
	Threonine     	  1.5174e-05
	Tyrosine      	  1.5174e-05

Hfo_s         
	  5.000e-06  moles
	                                   Mole                     Log
	Species               Moles    Fraction    Molality    Molality

	Hfo_sOHCa+2       4.938e-06       0.988   2.651e-06      -5.577
	Hfo_sOH2+         5.472e-08       0.011   2.937e-08      -7.532
	Hfo_sOH           6.894e-09       0.001   3.700e-09      -8.432
	Hfo_sO-           1.989e-11       0.000   1.068e-11     -10.971
	Hfo_sOFerrous+    8.083e-14       0.000   4.339e-14     -13.363

Hfo_w         
	  2.000e-04  moles
	                                   Mole                     Log
	Species               Moles    Fraction    Molality    Molality

	Hfo_wOH2+         1.155e-04       0.577   6.198e-05      -4.208
	Hfo_wHPO4-        4.811e-05       0.241   2.583e-05      -4.588
	Hfo_wH2PO4        1.556e-05       0.078   8.351e-06      -5.078
	Hfo_wOH           1.455e-05       0.073   7.809e-06      -5.107
	Hfo_wOMg+         3.287e-06       0.016   1.764e-06      -5.753
	Hfo_wPO4-2        2.527e-06       0.013   1.356e-06      -5.868
	Hfo_wOCa+         3.875e-07       0.002   2.080e-07      -6.682
	Hfo_wSulfateO4-   5.243e-08       0.000   2.814e-08      -7.551
	Hfo_wO-           4.198e-08       0.000   2.254e-08      -7.647
	Hfo_wOHSulfateO4-2   1.314e-08       0.000   7.053e-09      -8.152
	Hfo_wOFerrous+    1.592e-12       0.000   8.545e-13     -12.068
	Hfo_wOFerrousOH   1.049e-14       0.000   5.632e-15     -14.249

-----------------------------Exchange composition------------------------------

X                1.600e+01 mol

	                               Equiv-    Equivalent      Log 
	Species             Moles      alents      Fraction     Gamma

	CaX2              4.621e+00   9.241e+00   5.776e-01     0.000
	MgX2              2.775e+00   5.550e+00   3.469e-01     0.000
	NaX               1.099e+00   1.099e+00   6.871e-02     0.000
	KX                7.144e-02   7.144e-02   4.465e-03     0.000
	AmmH4X            3.691e-02   3.691e-02   2.307e-03     0.000
	HX                4.332e-04   4.332e-04   2.707e-05    -0.085
	FerrousX2         7.128e-08   1.426e-07   8.910e-09    -0.405

-----------------------------Solution composition------------------------------

	Elements           Molality       Moles

	Alanine           9.031e-06   1.682e-05
	Amm               3.221e-04   6.001e-04
	C                 8.828e-03   1.645e-02
	Ca                2.076e-02   3.868e-02
	Cl                5.844e-02   1.089e-01
	Cysteine          9.056e-06   1.687e-05
	Ferric            1.087e-07   2.025e-07
	Ferrous           2.111e-08   3.932e-08
	Glutamine         9.028e-06   1.682e-05
	Glycine           1.545e-05   2.878e-05
	K                 6.796e-04   1.266e-03
	Methane           8.644e-04   1.610e-03
	Mg                9.511e-03   1.772e-02
	Na                1.619e-02   3.015e-02
	Nitrate           1.123e-02   2.092e-02
	Ozero             8.826e-12   1.644e-11
	P                 1.528e-05   2.847e-05
	Sulfate           7.536e-04   1.404e-03
	Sulfide           3.435e-03   6.400e-03
	Threonine         9.028e-06   1.682e-05
	Tyrosine          9.028e-06   1.682e-05

----------------------------Description of solution----------------------------

                                       pH  =   6.389      Charge balance
                                       pe  =  -7.299      Adjusted to redox equilibrium
      Specific Conductance (µS/cm,  25°C)  = 7690
                        Activity of water  =   0.997
                 Ionic strength (mol/kgw)  =   1.060e-01
                       Mass of water (kg)  =   1.863e+00
                 Total alkalinity (eq/kg)  =   6.493e-03
                       Total CO2 (mol/kg)  =   8.828e-03
                         Temperature (°C)  =  25.00
                           Pressure (atm)  =  0.74
                  Electrical balance (eq)  =  -1.826e-07
 Percent error, 100*(Cat-|An|)/(Cat+|An|)  =  -0.00
                               Iterations  = 313
                                  Total H  = 2.070086e+02
                                  Total O  = 1.035160e+02

----------------------------Distribution of species----------------------------

                                               Log       Log       Log    mole V
   Species          Molality    Activity  Molality  Activity     Gamma   cm³/mol

   H+              4.958e-07   4.080e-07    -6.305    -6.389    -0.085      0.00
   OH-             3.231e-08   2.446e-08    -7.491    -7.612    -0.121     (0)  
   H2O             5.551e+01   9.970e-01     1.744    -0.001     0.000     18.07
Alanine       9.031e-06
   Alanine-2       9.027e-06   3.306e-06    -5.044    -5.481    -0.436     (0)  
   H2(Alanine)     3.982e-09   4.081e-09    -8.400    -8.389     0.011     (0)  
   H(Alanine)-     3.882e-10   3.020e-10    -9.411    -9.520    -0.109     (0)  
Amm           3.221e-04
   AmmH4+          3.212e-04   2.376e-04    -3.493    -3.624    -0.131     (0)  
   AmmH4SulfateO4-   5.736e-07   4.462e-07    -6.241    -6.350    -0.109     (0)  
   AmmH3           3.238e-07   3.318e-07    -6.490    -6.479     0.011     (0)  
C(4)          8.828e-03
   HCO3-           4.763e-03   3.738e-03    -2.322    -2.427    -0.105     (0)  
   CO2             3.356e-03   3.439e-03    -2.474    -2.464     0.011     (0)  
   CaHCO3+         4.686e-04   3.677e-04    -3.329    -3.434    -0.105     (0)  
   MgHCO3+         2.068e-04   1.609e-04    -3.684    -3.793    -0.109     (0)  
   NaHCO3          2.581e-05   2.645e-05    -4.588    -4.578     0.011     (0)  
   CaCO3           5.431e-06   5.565e-06    -5.265    -5.255     0.011     (0)  
   MgCO3           1.472e-06   1.508e-06    -5.832    -5.822     0.011     (0)  
   CO3-2           1.133e-06   4.296e-07    -5.946    -6.367    -0.421     (0)  
   NaCO3-          1.294e-07   1.007e-07    -6.888    -6.997    -0.109     (0)  
   FerrousHCO3+    2.053e-11   1.597e-11   -10.688   -10.797    -0.109     (0)  
   FerrousCO3      4.298e-13   4.404e-13   -12.367   -12.356     0.011     (0)  
Ca            2.076e-02
   Ca+2            2.006e-02   7.711e-03    -1.698    -2.113    -0.415     (0)  
   CaHCO3+         4.686e-04   3.677e-04    -3.329    -3.434    -0.105     (0)  
   CaSulfateO4     2.189e-04   2.243e-04    -3.660    -3.649     0.011     (0)  
   CaCO3           5.431e-06   5.565e-06    -5.265    -5.255     0.011     (0)  
   CaHPO4          3.006e-06   3.080e-06    -5.522    -5.511     0.011     (0)  
   CaH2PO4+        1.214e-06   9.447e-07    -5.916    -6.025    -0.109     (0)  
   CaPO4-          2.296e-08   1.786e-08    -7.639    -7.748    -0.109     (0)  
   CaOH+           4.020e-09   3.127e-09    -8.396    -8.505    -0.109     (0)  
   CaHSulfateO4+   6.893e-10   5.363e-10    -9.162    -9.271    -0.109     (0)  
Cl            5.844e-02
   Cl-             5.844e-02   4.441e-02    -1.233    -1.353    -0.119     (0)  
   FerrousCl+      3.368e-12   2.620e-12   -11.473   -11.582    -0.109     (0)  
   FerricCl+2      1.953e-14   7.152e-15   -13.709   -14.146    -0.436     (0)  
   FerricCl2+      1.824e-15   1.419e-15   -14.739   -14.848    -0.109     (0)  
   FerricCl3       6.149e-18   6.301e-18   -17.211   -17.201     0.011     (0)  
Cysteine      9.056e-06
   Cysteine-2      9.023e-06   3.305e-06    -5.045    -5.481    -0.436     (0)  
   H2(Cysteine)    3.236e-08   3.316e-08    -7.490    -7.479     0.011     (0)  
   H(Cysteine)-    8.890e-11   6.916e-11   -10.051   -10.160    -0.109     (0)  
Ferric        1.087e-07
   Ferric(OH)2+    8.751e-08   6.808e-08    -7.058    -7.167    -0.109     (0)  
   Ferric(OH)3     2.091e-08   2.143e-08    -7.680    -7.669     0.011     (0)  
   FerricOH+2      2.297e-10   8.414e-11    -9.639   -10.075    -0.436     (0)  
   Ferric(OH)4-    6.138e-11   4.775e-11   -10.212   -10.321    -0.109     (0)  
   Ferric+3        3.079e-14   5.333e-15   -13.512   -14.273    -0.762     (0)  
   FerricCl+2      1.953e-14   7.152e-15   -13.709   -14.146    -0.436     (0)  
   FerricH2PO4+2   1.877e-14   6.873e-15   -13.727   -14.163    -0.436     (0)  
   FerricSulfateO4+   1.096e-14   8.526e-15   -13.960   -14.069    -0.109     (0)  
   FerricCl2+      1.824e-15   1.419e-15   -14.739   -14.848    -0.109     (0)  
   FerricHPO4+     1.344e-15   1.046e-15   -14.871   -14.981    -0.109     (0)  
   Ferric(SulfateO4)2-   3.496e-17   2.720e-17   -16.456   -16.565    -0.109     (0)  
   Ferric2(OH)2+4   1.059e-17   1.905e-19   -16.975   -18.720    -1.745     (0)  
   FerricCl3       6.149e-18   6.301e-18   -17.211   -17.201     0.011     (0)  
   FerricHSulfateO4+2   2.543e-20   9.316e-21   -19.595   -20.031    -0.436     (0)  
   Ferric3(OH)4+5   1.443e-21   2.710e-24   -20.841   -23.567    -2.726     (0)  
Ferrous       2.111e-08
   Ferrous(HSulfide)2   1.902e-08   1.949e-08    -7.721    -7.710     0.011     (0)  
   Ferrous(HSulfide)3-   1.952e-09   1.518e-09    -8.710    -8.819    -0.109     (0)  
   Ferrous+2       1.085e-10   4.274e-11    -9.965   -10.369    -0.405     (0)  
   FerrousHCO3+    2.053e-11   1.597e-11   -10.688   -10.797    -0.109     (0)  
   FerrousCl+      3.368e-12   2.620e-12   -11.473   -11.582    -0.109     (0)  
   FerrousSulfateO4   1.081e-12   1.108e-12   -11.966   -11.955     0.011     (0)  
   FerrousCO3      4.298e-13   4.404e-13   -12.367   -12.356     0.011     (0)  
   FerrousH2PO4+   1.318e-13   1.026e-13   -12.880   -12.989    -0.109     (0)  
   FerrousHPO4     1.210e-13   1.240e-13   -12.917   -12.907     0.011     (0)  
   FerrousOH+      4.245e-14   3.302e-14   -13.372   -13.481    -0.109     (0)  
   FerrousHSulfateO4+   3.820e-18   2.972e-18   -17.418   -17.527    -0.109     (0)  
Glutamine     9.028e-06
   Glutamine-2     9.027e-06   3.306e-06    -5.044    -5.481    -0.436     (0)  
   H2(Glutamine)   7.247e-10   7.426e-10    -9.140    -9.129     0.011     (0)  
   H(Glutamine)-   2.565e-10   1.996e-10    -9.591    -9.700    -0.109     (0)  
Glycine       1.545e-05
   Glycine-        1.544e-05   1.201e-05    -4.811    -4.921    -0.109     (0)  
   H2(Glycine)+    1.023e-08   7.959e-09    -7.990    -8.099    -0.109     (0)  
   H(Glycine)      1.046e-09   1.072e-09    -8.980    -8.970     0.011     (0)  
H(0)          9.105e-02
   H2              4.552e-02   4.665e-02    -1.342    -1.331     0.011     (0)  
K             6.796e-04
   K+              6.789e-04   5.159e-04    -3.168    -3.287    -0.119     (0)  
   KSulfateO4-     6.794e-07   5.286e-07    -6.168    -6.277    -0.109     (0)  
   KHPO4-          9.421e-10   7.329e-10    -9.026    -9.135    -0.109     (0)  
   KOH             4.266e-12   4.371e-12   -11.370   -11.359     0.011     (0)  
Methane       8.644e-04
   MethaneH4       8.644e-04   8.857e-04    -3.063    -3.053     0.011     (0)  
Mg            9.511e-03
   Mg+2            9.177e-03   3.679e-03    -2.037    -2.434    -0.397     (0)  
   MgHCO3+         2.068e-04   1.609e-04    -3.684    -3.793    -0.109     (0)  
   MgSulfateO4     1.227e-04   1.257e-04    -3.911    -3.901     0.011     (0)  
   MgHPO4          1.939e-06   1.987e-06    -5.712    -5.702     0.011     (0)  
   MgCO3           1.472e-06   1.508e-06    -5.832    -5.822     0.011     (0)  
   MgH2PO4+        7.378e-07   5.740e-07    -6.132    -6.241    -0.109     (0)  
   MgOH+           4.195e-08   3.264e-08    -7.377    -7.486    -0.109     (0)  
   MgPO4-          1.478e-08   1.149e-08    -7.830    -7.939    -0.109     (0)  
Na            1.619e-02
   Na+             1.615e-02   1.258e-02    -1.792    -1.900    -0.108     (0)  
   NaHCO3          2.581e-05   2.645e-05    -4.588    -4.578     0.011     (0)  
   NaSulfateO4-    1.182e-05   9.195e-06    -4.927    -5.036    -0.109     (0)  
   NaCO3-          1.294e-07   1.007e-07    -6.888    -6.997    -0.109     (0)  
   NaHPO4-         2.298e-08   1.788e-08    -7.639    -7.748    -0.109     (0)  
   NaOH            1.982e-10   2.031e-10    -9.703    -9.692     0.011     (0)  
Nitrate       1.123e-02
   NitrateO3-      1.123e-02   8.737e-03    -1.950    -2.059    -0.109     (0)  
O(0)          0.000e+00
   O2              0.000e+00   0.000e+00   -89.731   -89.720     0.011     (0)  
Ozero         8.826e-12
   Ozero2          4.413e-12   4.522e-12   -11.355   -11.345     0.011     (0)  
P             1.528e-05
   H2PO4-          6.198e-06   4.788e-06    -5.208    -5.320    -0.112     (0)  
   CaHPO4          3.006e-06   3.080e-06    -5.522    -5.511     0.011     (0)  
   HPO4-2          2.127e-06   7.286e-07    -5.672    -6.138    -0.465     (0)  
   MgHPO4          1.939e-06   1.987e-06    -5.712    -5.702     0.011     (0)  
   CaH2PO4+        1.214e-06   9.447e-07    -5.916    -6.025    -0.109     (0)  
   MgH2PO4+        7.378e-07   5.740e-07    -6.132    -6.241    -0.109     (0)  
   NaHPO4-         2.298e-08   1.788e-08    -7.639    -7.748    -0.109     (0)  
   CaPO4-          2.296e-08   1.786e-08    -7.639    -7.748    -0.109     (0)  
   MgPO4-          1.478e-08   1.149e-08    -7.830    -7.939    -0.109     (0)  
   KHPO4-          9.421e-10   7.329e-10    -9.026    -9.135    -0.109     (0)  
   PO4-3           8.964e-12   8.050e-13   -11.048   -12.094    -1.047     (0)  
   FerrousH2PO4+   1.318e-13   1.026e-13   -12.880   -12.989    -0.109     (0)  
   FerrousHPO4     1.210e-13   1.240e-13   -12.917   -12.907     0.011     (0)  
   FerricH2PO4+2   1.877e-14   6.873e-15   -13.727   -14.163    -0.436     (0)  
   FerricHPO4+     1.344e-15   1.046e-15   -14.871   -14.981    -0.109     (0)  
Sulfate       7.536e-04
   SulfateO4-2     3.989e-04   1.458e-04    -3.399    -3.836    -0.437     (0)  
   CaSulfateO4     2.189e-04   2.243e-04    -3.660    -3.649     0.011     (0)  
   MgSulfateO4     1.227e-04   1.257e-04    -3.911    -3.901     0.011     (0)  
   NaSulfateO4-    1.182e-05   9.195e-06    -4.927    -5.036    -0.109     (0)  
   KSulfateO4-     6.794e-07   5.286e-07    -6.168    -6.277    -0.109     (0)  
   AmmH4SulfateO4-   5.736e-07   4.462e-07    -6.241    -6.350    -0.109     (0)  
   HSulfateO4-     7.435e-09   5.784e-09    -8.129    -8.238    -0.109     (0)  
   CaHSulfateO4+   6.893e-10   5.363e-10    -9.162    -9.271    -0.109     (0)  
   FerrousSulfateO4   1.081e-12   1.108e-12   -11.966   -11.955     0.011     (0)  
   FerricSulfateO4+   1.096e-14   8.526e-15   -13.960   -14.069    -0.109     (0)  
   Ferric(SulfateO4)2-   3.496e-17   2.720e-17   -16.456   -16.565    -0.109     (0)  
   FerrousHSulfateO4+   3.820e-18   2.972e-18   -17.418   -17.527    -0.109     (0)  
   FerricHSulfateO4+2   2.543e-20   9.316e-21   -19.595   -20.031    -0.436     (0)  
Sulfide       3.435e-03
   H2Sulfide       2.491e-03   2.552e-03    -2.604    -2.593     0.011     (0)  
   HSulfide-       9.448e-04   7.154e-04    -3.025    -3.145    -0.121     (0)  
   Ferrous(HSulfide)2   1.902e-08   1.949e-08    -7.721    -7.710     0.011     (0)  
   Ferrous(HSulfide)3-   1.952e-09   1.518e-09    -8.710    -8.819    -0.109     (0)  
   Sulfide-2       5.736e-10   2.118e-10    -9.241    -9.674    -0.433     (0)  
Threonine     9.028e-06
   Threonine-2     9.027e-06   3.307e-06    -5.044    -5.481    -0.436     (0)  
   H2(Threonine)   7.082e-10   7.257e-10    -9.150    -9.139     0.011     (0)  
   H(Threonine)-   2.450e-10   1.906e-10    -9.611    -9.720    -0.109     (0)  
Tyrosine      9.028e-06
   Tyrosine-2      9.027e-06   3.306e-06    -5.044    -5.481    -0.436     (0)  
   H2(Tyrosine)    6.921e-10   7.092e-10    -9.160    -9.149     0.011     (0)  
   H(Tyrosine)-    2.749e-10   2.138e-10    -9.561    -9.670    -0.109     (0)  

------------------------------Saturation indices-------------------------------

  Phase               SI** log IAP   log K(298 K,   1 atm)

  FixpH            -6.39     -6.39    0.00  H+
  H2(g)             1.82     -1.33   -3.15  H2
  H2O(g)           -1.51     -0.00    1.51  H2O
  Halite           -4.83     -3.25    1.58  NaCl
  Hydroxyapatite    0.00     -3.42   -3.42  Ca5(PO4)3OH
  ORM             742.28   -136.95 -879.23  C5H4O2Amm
  redoxAnhydrite   -1.59     -5.95   -4.36  CaSulfateO4
  redoxAragonite   -0.14     -8.48   -8.34  CaCO3
  redoxCalcite      0.00     -8.48   -8.48  CaCO3
  redoxCH4(g)      -0.19     -3.05   -2.86  MethaneH4
  redoxCO2(g)      -1.00     -2.46   -1.47  CO2
  redoxDolomite    -0.19    -17.28  -17.09  CaMg(CO3)2
  redoxFe(OH)3(a)  -0.00      4.89    4.89  Ferric(OH)3
  redoxFeS(ppt)    -3.21     -7.13   -3.92  FerrousSulfide
  redoxGoethite     5.89      4.89   -1.00  FerricOOH
  redoxGypsum      -1.37     -5.95   -4.58  CaSulfateO4:2H2O
  redoxH2S(g)      -1.60     -2.59   -1.00  H2Sulfide
  redoxHematite    13.79      9.79   -4.01  Ferric2O3
  redoxJarosite-K  -6.24    -15.45   -9.21  KFerric3(SulfateO4)2(OH)6
  redoxMackinawite  -2.48     -7.13   -4.65  FerrousSulfide
  redoxMelanterite -12.01    -14.21   -2.21  FerrousSulfateO4:7H2O
  redoxNH3(g)      -8.25     -6.48    1.77  AmmH3
  redoxO2(g)       -8.45    -11.34   -2.89  Ozero2
  redoxPyrite       0.00    -18.48  -18.48  FerrousSulfide2
  redoxSiderite    -5.85    -16.74  -10.89  FerrousCO3
  redoxSulfur      -9.29     -4.41    4.88  Sulfide
  redoxVivianite  -19.31    -55.31  -36.00  Ferrous3(PO4)2:8H2O

**For a gas, SI = log10(fugacity). Fugacity = pressure * phi / 1 atm.
  For ideal gases, phi = 1.

------------------
End of simulation.
------------------

------------------------------------
Reading input data for simulation 4.
------------------------------------

---------------------------------
End of Run after 105.416 Seconds.
---------------------------------

