   Input file: closed_redox_sw4.phrq
  Output file: closed_redox_sw4.phrq.out
Database file: ../database/redox.dat

------------------
Reading data base.
------------------

	SOLUTION_MASTER_SPECIES
	SOLUTION_SPECIES
	PHASES
	EXCHANGE_MASTER_SPECIES
	EXCHANGE_SPECIES
	SURFACE_MASTER_SPECIES
	SURFACE_SPECIES
	RATES
	END
------------------------------------
Reading input data for simulation 1.
------------------------------------

	DATABASE ../database/redox.dat
	TITLE  MEND and redox coupling
	CALCULATE_VALUES
	SC_T25
	 start
	 10 sc25 = SC/(1+0.021*(temperature-25))   #in us/cm
	 20 SAVE sc25
	 end
	fsl1    ##more sensitive (green)
	 start
	 10 fsl1 = 1 / (1.0 + exp(1.68 * (log10(CALC_VALUE("SC_T25")/1000)+0.26))) #log(ds/m)
	 40 SAVE fsl1
	 end
	fsl2     ##medium (purple)
	 start
	 10 fsl2 = 1 / (1.0 + exp(2.28 * (log10(CALC_VALUE("SC_T25")/1000)-0.60)))  #log(ds/m)
	 40 SAVE fsl2
	 end
	fsl3     ##medium (red)
	 start
	 10 fsl3 = 1 / (1.0 + exp(2.23 * (log10(CALC_VALUE("SC_T25")/1000)-1.11)))  #log(ds/m)
	 40 SAVE fsl3
	 end
	fsl4    ##more resistant (black)
	 start
	 10 fsl4 = 1 / (1.0 + exp(4.03 * (log10(CALC_VALUE("SC_T25")/1000)-1.78)))  #log(ds/m)
	 40 SAVE fsl4
	 end
	SOLUTION 1    
	units umol/L        #3.774L total volume  ##based on clay fresh system
	pH    7  charge
	temperature 	 25
	water         1.887   #default is 1 kg
	P           5
	Amm         38
	Na          114
	Ca          183
	Cl          133 
	Sulfate     4 
	K           28
	Mg          79
	C(4)        9  
	Nitrate        0
	Ferric       50
	Alanine      52
	Cysteine     52
	Glycine      52
	Glutamine    52
	Threonine    52
	Tyrosine     52
	Ozero        600    redoxO2(g) -0.7
	Methane      1
	Sulfide      0.1
	  SAVE SOLUTION 1
	END
-----
TITLE
-----

  MEND and redox coupling

-------------------------------------------
Beginning of initial solution calculations.
-------------------------------------------

Initial solution 1.	

-----------------------------Solution composition------------------------------

	Elements           Molality       Moles

	Alanine           5.200e-05   9.813e-05
	Amm               3.800e-05   7.171e-05
	C(4)              9.001e-06   1.698e-05
	Ca                1.830e-04   3.453e-04
	Cl                1.330e-04   2.510e-04
	Cysteine          5.200e-05   9.813e-05
	Ferric            5.000e-05   9.436e-05
	Glutamine         5.200e-05   9.813e-05
	Glycine           5.200e-05   9.813e-05
	K                 2.800e-05   5.284e-05
	Methane           1.000e-06   1.887e-06
	Mg                7.901e-05   1.491e-04
	Na                1.140e-04   2.151e-04
	Ozero             5.111e-04   9.645e-04  Equilibrium with redoxO2(g)
	P                 5.000e-06   9.436e-06
	Sulfate           4.000e-06   7.549e-06
	Sulfide           1.000e-07   1.887e-07
	Threonine         5.200e-05   9.813e-05
	Tyrosine          5.200e-05   9.813e-05

----------------------------Description of solution----------------------------

                                       pH  =   6.951      Charge balance
                                       pe  =   4.000    
      Specific Conductance (µS/cm,  25°C)  = 49
                        Activity of water  =   1.000
                 Ionic strength (mol/kgw)  =   1.254e-03
                       Mass of water (kg)  =   1.887e+00
                 Total alkalinity (eq/kg)  =   3.480e-04
                       Total CO2 (mol/kg)  =   9.001e-06
                         Temperature (°C)  =  25.00
                  Electrical balance (eq)  =   1.862e-17
 Percent error, 100*(Cat-|An|)/(Cat+|An|)  =   0.00
                               Iterations  =   8
                                  Total H  = 2.094810e+02
                                  Total O  = 1.047406e+02

----------------------------Distribution of species----------------------------

                                               Log       Log       Log    mole V
   Species          Molality    Activity  Molality  Activity     Gamma   cm³/mol

   H+              1.163e-07   1.120e-07    -6.935    -6.951    -0.016      0.00
   OH-             9.305e-08   8.941e-08    -7.031    -7.049    -0.017     (0)  
   H2O             5.551e+01   1.000e+00     1.744    -0.000     0.000     18.07
Alanine       5.200e-05
   Alanine-2       5.200e-05   4.436e-05    -4.284    -4.353    -0.069     (0)  
   H2(Alanine)     4.121e-09   4.123e-09    -8.385    -8.385     0.000     (0)  
   H(Alanine)-     1.157e-09   1.112e-09    -8.937    -8.954    -0.017     (0)  
Amm           3.800e-05
   AmmH4+          3.782e-05   3.632e-05    -4.422    -4.440    -0.018     (0)  
   AmmH3           1.848e-07   1.848e-07    -6.733    -6.733     0.000     (0)  
   AmmH4SulfateO4-   1.598e-09   1.536e-09    -8.796    -8.814    -0.017     (0)  
C(4)          9.001e-06
   HCO3-           7.227e-06   6.949e-06    -5.141    -5.158    -0.017     (0)  
   CO2             1.749e-06   1.750e-06    -5.757    -5.757     0.000     (0)  
   CaHCO3+         1.441e-08   1.385e-08    -7.841    -7.858    -0.017     (0)  
   MgHCO3+         5.710e-09   5.487e-09    -8.243    -8.261    -0.017     (0)  
   CO3-2           3.404e-09   2.911e-09    -8.468    -8.536    -0.068     (0)  
   CaCO3           7.637e-10   7.639e-10    -9.117    -9.117     0.000     (0)  
   NaHCO3          4.281e-10   4.283e-10    -9.368    -9.368     0.000     (0)  
   MgCO3           1.874e-10   1.874e-10    -9.727    -9.727     0.000     (0)  
   NaCO3-          6.180e-12   5.940e-12   -11.209   -11.226    -0.017     (0)  
Ca            1.830e-04
   Ca+2            1.827e-04   1.562e-04    -3.738    -3.806    -0.068     (0)  
   CaHPO4          1.339e-07   1.339e-07    -6.873    -6.873     0.000     (0)  
   CaSulfateO4     1.023e-07   1.023e-07    -6.990    -6.990     0.000     (0)  
   CaHCO3+         1.441e-08   1.385e-08    -7.841    -7.858    -0.017     (0)  
   CaH2PO4+        1.173e-08   1.127e-08    -7.931    -7.948    -0.017     (0)  
   CaPO4-          2.944e-09   2.829e-09    -8.531    -8.548    -0.017     (0)  
   CaCO3           7.637e-10   7.639e-10    -9.117    -9.117     0.000     (0)  
   CaOH+           2.410e-10   2.316e-10    -9.618    -9.635    -0.017     (0)  
   CaHSulfateO4+   6.984e-14   6.712e-14   -13.156   -13.173    -0.017     (0)  
Cl            1.330e-04
   Cl-             1.330e-04   1.278e-04    -3.876    -3.893    -0.017     (0)  
   FerricCl+2      6.028e-16   5.142e-16   -15.220   -15.289    -0.069     (0)  
   FerricCl2+      3.055e-19   2.936e-19   -18.515   -18.532    -0.017     (0)  
   FerricCl3       3.751e-24   3.752e-24   -23.426   -23.426     0.000     (0)  
Cysteine      5.200e-05
   Cysteine-2      5.197e-05   4.433e-05    -4.284    -4.353    -0.069     (0)  
   H2(Cysteine)    3.348e-08   3.349e-08    -7.475    -7.475     0.000     (0)  
   H(Cysteine)-    2.649e-10   2.546e-10    -9.577    -9.594    -0.017     (0)  
Ferric        5.000e-05
   Ferric(OH)3     2.613e-05   2.614e-05    -4.583    -4.583     0.000     (0)  
   Ferric(OH)2+    2.364e-05   2.272e-05    -4.626    -4.644    -0.017     (0)  
   Ferric(OH)4-    2.215e-07   2.129e-07    -6.655    -6.672    -0.017     (0)  
   FerricOH+2      9.006e-09   7.683e-09    -8.045    -8.114    -0.069     (0)  
   Ferric+3        1.870e-13   1.332e-13   -12.728   -12.875    -0.147     (0)  
   FerricH2PO4+2   1.185e-13   1.011e-13   -12.926   -12.995    -0.069     (0)  
   FerricHPO4+     5.833e-14   5.605e-14   -13.234   -13.251    -0.017     (0)  
   FerricSulfateO4+   4.990e-15   4.795e-15   -14.302   -14.319    -0.017     (0)  
   Ferric2(OH)2+4   3.000e-15   1.589e-15   -14.523   -14.799    -0.276     (0)  
   FerricCl+2      6.028e-16   5.142e-16   -15.220   -15.289    -0.069     (0)  
   Ferric3(OH)4+5   2.036e-17   7.541e-18   -16.691   -17.123    -0.431     (0)  
   Ferric(SulfateO4)2-   3.583e-19   3.444e-19   -18.446   -18.463    -0.017     (0)  
   FerricCl2+      3.055e-19   2.936e-19   -18.515   -18.532    -0.017     (0)  
   FerricHSulfateO4+2   1.685e-21   1.438e-21   -20.773   -20.842    -0.069     (0)  
   FerricCl3       3.751e-24   3.752e-24   -23.426   -23.426     0.000     (0)  
Glutamine     5.200e-05
   Glutamine-2     5.200e-05   4.436e-05    -4.284    -4.353    -0.069     (0)  
   H(Glutamine)-   7.645e-10   7.347e-10    -9.117    -9.134    -0.017     (0)  
   H2(Glutamine)   7.500e-10   7.502e-10    -9.125    -9.125     0.000     (0)  
Glycine       5.200e-05
   Glycine-        5.200e-05   4.997e-05    -4.284    -4.301    -0.017     (0)  
   H2(Glycine)+    2.595e-09   2.494e-09    -8.586    -8.603    -0.017     (0)  
   H(Glycine)      1.224e-09   1.224e-09    -8.912    -8.912     0.000     (0)  
H(0)          1.775e-25
   H2              8.873e-26   8.875e-26   -25.052   -25.052     0.000     (0)  
K             2.800e-05
   K+              2.800e-05   2.691e-05    -4.553    -4.570    -0.017     (0)  
   KSulfateO4-     6.457e-10   6.206e-10    -9.190    -9.207    -0.017     (0)  
   KHPO4-          8.533e-11   8.200e-11   -10.069   -10.086    -0.017     (0)  
   KOH             8.329e-13   8.332e-13   -12.079   -12.079     0.000     (0)  
Methane       1.000e-06
   MethaneH4       1.000e-06   1.000e-06    -6.000    -6.000     0.000     (0)  
Mg            7.901e-05
   Mg+2            7.886e-05   6.748e-05    -4.103    -4.171    -0.068     (0)  
   MgHPO4          7.818e-08   7.820e-08    -7.107    -7.107     0.000     (0)  
   MgSulfateO4     5.192e-08   5.193e-08    -7.285    -7.285     0.000     (0)  
   MgH2PO4+        6.450e-09   6.199e-09    -8.190    -8.208    -0.017     (0)  
   MgHCO3+         5.710e-09   5.487e-09    -8.243    -8.261    -0.017     (0)  
   MgOH+           2.277e-09   2.188e-09    -8.643    -8.660    -0.017     (0)  
   MgPO4-          1.715e-09   1.649e-09    -8.766    -8.783    -0.017     (0)  
   MgCO3           1.874e-10   1.874e-10    -9.727    -9.727     0.000     (0)  
Na            1.140e-04
   Na+             1.140e-04   1.096e-04    -3.943    -3.960    -0.017     (0)  
   NaSulfateO4-    1.876e-09   1.803e-09    -8.727    -8.744    -0.017     (0)  
   NaHCO3          4.281e-10   4.283e-10    -9.368    -9.368     0.000     (0)  
   NaHPO4-         3.475e-10   3.340e-10    -9.459    -9.476    -0.017     (0)  
   NaOH            6.464e-12   6.466e-12   -11.189   -11.189     0.000     (0)  
   NaCO3-          6.180e-12   5.940e-12   -11.209   -11.226    -0.017     (0)  
O(0)          0.000e+00
   O2              0.000e+00   0.000e+00   -42.277   -42.276     0.000     (0)  
Ozero         5.111e-04
   Ozero2          2.556e-04   2.556e-04    -3.592    -3.592     0.000     (0)  
P             5.000e-06
   H2PO4-          2.933e-06   2.819e-06    -5.533    -5.550    -0.017     (0)  
   HPO4-2          1.832e-06   1.563e-06    -5.737    -5.806    -0.069     (0)  
   CaHPO4          1.339e-07   1.339e-07    -6.873    -6.873     0.000     (0)  
   MgHPO4          7.818e-08   7.820e-08    -7.107    -7.107     0.000     (0)  
   CaH2PO4+        1.173e-08   1.127e-08    -7.931    -7.948    -0.017     (0)  
   MgH2PO4+        6.450e-09   6.199e-09    -8.190    -8.208    -0.017     (0)  
   CaPO4-          2.944e-09   2.829e-09    -8.531    -8.548    -0.017     (0)  
   MgPO4-          1.715e-09   1.649e-09    -8.766    -8.783    -0.017     (0)  
   NaHPO4-         3.475e-10   3.340e-10    -9.459    -9.476    -0.017     (0)  
   KHPO4-          8.533e-11   8.200e-11   -10.069   -10.086    -0.017     (0)  
   PO4-3           9.000e-12   6.294e-12   -11.046   -11.201    -0.155     (0)  
   FerricH2PO4+2   1.185e-13   1.011e-13   -12.926   -12.995    -0.069     (0)  
   FerricHPO4+     5.833e-14   5.605e-14   -13.234   -13.251    -0.017     (0)  
Sulfate       4.000e-06
   SulfateO4-2     3.842e-06   3.283e-06    -5.415    -5.484    -0.068     (0)  
   CaSulfateO4     1.023e-07   1.023e-07    -6.990    -6.990     0.000     (0)  
   MgSulfateO4     5.192e-08   5.193e-08    -7.285    -7.285     0.000     (0)  
   NaSulfateO4-    1.876e-09   1.803e-09    -8.727    -8.744    -0.017     (0)  
   AmmH4SulfateO4-   1.598e-09   1.536e-09    -8.796    -8.814    -0.017     (0)  
   KSulfateO4-     6.457e-10   6.206e-10    -9.190    -9.207    -0.017     (0)  
   HSulfateO4-     3.718e-11   3.573e-11   -10.430   -10.447    -0.017     (0)  
   CaHSulfateO4+   6.984e-14   6.712e-14   -13.156   -13.173    -0.017     (0)  
   FerricSulfateO4+   4.990e-15   4.795e-15   -14.302   -14.319    -0.017     (0)  
   Ferric(SulfateO4)2-   3.583e-19   3.444e-19   -18.446   -18.463    -0.017     (0)  
   FerricHSulfateO4+2   1.685e-21   1.438e-21   -20.773   -20.842    -0.069     (0)  
Sulfide       1.000e-07
   HSulfide-       5.154e-08   4.952e-08    -7.288    -7.305    -0.017     (0)  
   H2Sulfide       4.847e-08   4.848e-08    -7.315    -7.314     0.000     (0)  
   Sulfide-2       6.251e-14   5.342e-14   -13.204   -13.272    -0.068     (0)  
Threonine     5.200e-05
   Threonine-2     5.200e-05   4.436e-05    -4.284    -4.353    -0.069     (0)  
   H2(Threonine)   7.330e-10   7.332e-10    -9.135    -9.135     0.000     (0)  
   H(Threonine)-   7.301e-10   7.016e-10    -9.137    -9.154    -0.017     (0)  
Tyrosine      5.200e-05
   Tyrosine-2      5.200e-05   4.436e-05    -4.284    -4.353    -0.069     (0)  
   H(Tyrosine)-    8.191e-10   7.872e-10    -9.087    -9.104    -0.017     (0)  
   H2(Tyrosine)    7.163e-10   7.165e-10    -9.145    -9.145     0.000     (0)  

------------------------------Saturation indices-------------------------------

  Phase               SI** log IAP   log K(298 K,   1 atm)

  FixpH            -6.95     -6.95    0.00  H+
  H2(g)           -21.90    -25.05   -3.15  H2
  H2O(g)           -1.51     -0.00    1.51  H2O
  Halite           -9.44     -7.85    1.58  NaCl
  Hydroxyapatite   -5.22     -8.65   -3.42  Ca5(PO4)3OH
  ORM             829.47    -49.76 -879.23  C5H4O2Amm
  redoxAnhydrite   -4.93     -9.29   -4.36  CaSulfateO4
  redoxAragonite   -4.01    -12.34   -8.34  CaCO3
  redoxCalcite     -3.86    -12.34   -8.48  CaCO3
  redoxCH4(g)      -3.14     -6.00   -2.86  MethaneH4
  redoxCO2(g)      -4.29     -5.76   -1.47  CO2
  redoxDolomite    -7.96    -25.05  -17.09  CaMg(CO3)2
  redoxFe(OH)3(a)   3.09      7.98    4.89  Ferric(OH)3
  redoxGoethite     8.98      7.98   -1.00  FerricOOH
  redoxGypsum      -4.71     -9.29   -4.58  CaSulfateO4:2H2O
  redoxH2S(g)      -6.32     -7.31   -1.00  H2Sulfide
  redoxHematite    19.96     15.95   -4.01  Ferric2O3
  redoxJarosite-K  -3.25    -12.46   -9.21  KFerric3(SulfateO4)2(OH)6
  redoxNH3(g)      -8.50     -6.73    1.77  AmmH3
  redoxO2(g)       -0.70     -3.59   -2.89  Ozero2
  redoxSulfur       9.71     14.59    4.88  Sulfide

**For a gas, SI = log10(fugacity). Fugacity = pressure * phi / 1 atm.
  For ideal gases, phi = 1.

------------------
End of simulation.
------------------

------------------------------------
Reading input data for simulation 2.
------------------------------------

	GAS_PHASE 1 fixed volume gas phase
	  fixed_volume
	  volume	   0.9  #(L)  calculate air pore space
	  temperature 	 25.0
	  redoxO2(g)   0.2
	  redoxCH4(g)  0.0
	  redoxCO2(g)  0.000316
	  SAVE GAS_PHASE 1
	END
------------------
End of simulation.
------------------

------------------------------------
Reading input data for simulation 3.
------------------------------------

	USE SOLUTION 1
	USE GAS_PHASE 1
	EXCHANGE_SPECIES
	 X- = X-
	 log_k 0     #semicolon is logical end of line
	 X- + AmmH4+ = AmmH4X
	  log_k  0.25   #define the half-reactions of ion change
	 2X- + Ca+2  = CaX2
	    log_k  0.4    $logK's relative 
	 2X- + Mg+2  = MgX2
	    log_k  0.5
	 X- + Na+  = NaX
	      log_k  0.0
	 X- + K+  = KX
	       log_k  0.2
	EXCHANGE 1   #exchanger in equilibirium 
	  X         16  #exchanger amount in mol
	  equilibrate with solution 1
	  exchange_gammas   true
	EQUILIBRIUM_PHASES 1
	  redoxCalcite      0  0.001     #CaCo3
	  redoxFeS(ppt)     0  0.001     #FeS
	  Hydroxyapatite    0  0.001     #Ca5(PO4)3OH
	  redoxPyrite       0  0.001     #FeS2
	  redoxFe(OH)3(a)   0  2   
	SURFACE 1
	 Hfo_wOH 2e-4  600  280  #site density (per nm2), SSA (m2/g), gram
	 Hfo_sOH 5e-6
	donnan 1e-8   #defuse layer thickness
	  H_a   3.837E-02  3.417E+04     80  ##gram of SOM for exchange
	  H_b   3.837E-02
	 H_c   3.837E-02
	 H_d  3.837E-02
	  H_e   1.919E-02
	 H_f   1.919E-02
	 H_g  1.919E-02
	 H_h  1.919E-02
	  H_ab  6.378E-02
	 H_ad  6.378E-02
	 H_af  6.378E-02
	 H_ah  6.378E-02
	  H_bc  6.378E-02
	 H_be  6.378E-02
	 H_bg  6.378E-05
	 H_cd  6.378E-05
	  H_cf  6.378E-02
	 H_ch  6.378E-02
	 H_de  6.378E-05
	 H_dg  6.378E-05
	 equilibrate with solution 1
	USE SOLUTION 1
	KINETICS  Decomposition  ##in mgC per g soil, redox reaction stoichiometry based on per biomassC
	cvode
	BA
	   m0   0.52
	   formula CH2O 0.0  
	   parms 1.04 0.25 0.001 0.4 0.02  #parm(1)=Vd, parm(2)=Kd, parm(3)=PEP, parm(4)=CUE, parm(5)=kb
	OAC
	   m0  0.001
	   formula CH2O 0.0   
	   parms  0.2  0.25
	Aero
	   formula CH2O 0.0   Ozero2  1.44   HCO3 -1.44  #C 2.44
	   parms  4   0.02  0.02   #Vmax, Koc, Ko2
	SulR
	   formula CH2O 0.0   SulfateO4-2  4.5   HSulfide-  -4.5  HCO3 -9    #C 10
	   parms  0.4   0.3   1   #Vmax, Koc, Kso4
	Meth
	   formula CH2O 0.0     MethaneH4 -20.24  HCO3 20.24   #C 41.48
	   parms  0.25   0.6  0.1   #Vmax, Koc, KI_O2
	POM
	   m0   4.71
	   formula CH2O 0.0  
	   parms 33.8  50  0  0.5   #vp1, kp1, Ip1, gD-fraction of dead BA to D
	MOM
	   m0   15.9
	   formula CH2O 0.0
	   parms 0.2  250 0.5   #vm, km, fD- fraction of decomposed p1/p2 to D
	DOM
	   m0   0.48
	   formula CH2O 0.0
	   parms  0.5  0.25  0
	QOM
	   m0   1.767
	   formula CH2O 0.0
	   parms 0.006 0.5  0.001   #adsorption constant, Qmax, desorption constant
	EP
	   m0   0.052
	   formula CH2O 0.0
	   parms  0.001
	EM
	   m0   0.052
	   formula CH2O 0.0
	   parms  0.001
	respiration
	   m0   0
	   formula CH2O 0.0 
	   parms  0.4
	Tot
	   m0   23.484
	   formula CH2O 0.0
	Salt  ##saltwater ion stoichiometry
	   m0   0.001
	   formula  CH2O 0.0   Cl-  -22  Sulfate  -4   Na+  -25   K+  -1    Ca+2  -2  Mg+2  -4   HCO3  -3  Nitrate -5 
	   parms 0.01  ## mol per gram soil per day
	Caero
	   m0   0
	   formula CH2O 0.0
	Csulr
	   m0   0
	   formula CH2O 0.0
	Cmeth
	   m0   0
	   formula CH2O 0.0
	   steps 100 in 100 steps #day
	  INCREMENTAL_REACTIONS true
	RATES
	BA
	   start
	    10 mDOM= kin("DOM")*0.8
	    20 bio = kin("BA")
	    30 uptake= parm(1)* bio * mDOM/(parm(2)+mDOM)   #parm(1)=Vd, parm(2)=Kd
	    40 put(uptake, 1) #microbil uptake flux                                      
	    50 decay=(1-parm(3)*2)*bio*parm(5)     #parm(3)=pEP=pEM (exoemzyme production rate); 0.1*Vd=biomass decay rate
	    60 put(decay, 2)                                           ##maintenance respiration
	    70 pexo = parm(3)*bio   #exoenzyme production enzyme production rate=0.1*Vd
	    80 put(pexo, 3)                                             ##mortality
	    90 rate = get(1)*parm(4)-get(2)-get(3)-get(3)+get(11)*get(11)/(get(11)+get(12)+get(13))+get(12)*get(12)/(get(11)+get(12)+get(13))+get(13)*get(13)/(get(11)+get(12)+get(13)) #parm(4)=CUE
	    100 save -rate * time 
	   end
	OAC
	   start
	    10 mDOM= kin("DOM")
	    20 rate = parm(1)* mDOM+parm(2)* get(2)-get(11)*2.44*get(11)/(get(11)+get(12)+get(13))-get(12)*10*get(12)/(get(11)+get(12)+get(13))-get(13)*41.48*get(13)/(get(11)+get(12)+get(13))  #C stoichiometry for redox reactions
	    30 put(rate, 14)
	    100 save -rate * time 
	   end
	Aero
	  start
	   10 mDOM= kin("OAC")/12
	   20 bio = kin("BA")/12
	   30 DO= mol("Ozero2")*1000
	   40 donor = mDOM/(parm(2)+mDOM)
	   50 accp = DO/(parm(3)+DO)
	   60 rate = parm(1)* bio * donor * accp
	   70 put(rate, 11)
	   80 final = rate*get(11)/(get(11)+get(12)+get(13))
	  100 save -final* time
	  end
	SulR
	  start
	   10 mDOM= kin("OAC")/12
	   20 bio = 0.6*kin("BA")/12
	   30 DO = mol("Ozero2")*1000
	   40 SO = mol("SulfateO4-2")*1000
	   50 donor = mDOM/(parm(2)+mDOM)
	   60 acc = SO/(parm(3)+SO)
	   70 rate = parm(1)* bio * donor * acc
	   80 put(rate, 12)
	   90 final = rate*get (12)/(get(11)+get(12)+get(13))
	  100 save -final * time
	  end
	Meth
	  start
	   10 mDOM= kin("OAC")/12
	   11 if(kin("OAC")<= 0.15) then mDOM=0
	   20 bio = 0.2*kin("BA")/12
	   30 DO = mol("Ozero2")*1000
	   50 donor = mDOM/(parm(2)+mDOM)
	   60 inhib = parm(3)/(DO+parm(3))
	   70 rate =  parm(1)* bio * donor 
	   80 put(rate, 13)
	   90 final = rate*get (13)/(get(11)+get(12)+get(13))
	  100 save -final * time
	  end
	POM
	   start
	    10 mPOM = kin("POM")
	    20 ep = kin("EP")
	    30 deco = parm(1) * ep * mPOM/(parm(2)+mPOM) # parm(1)=Vp, parm(2)=Kp
	    40 put (deco, 4)  #POM decomposition
	    50 rate = (1-parm(4))*get(2)-get(4)  #parm(3)=input, parm(4)=gD, fraction of decayed biomass C going to DOM pool
	    100 save -rate * time
	   end
	MOM
	   start
	    10 mMOM = kin("MOM")
	    20 em = kin("EM")
	    30 flux = parm(1) * em * mMOM /(parm(2)+ mMOM) # parm(1)=VM, parm(2)=KM
	    40 put(flux,5)  #MOM decomposition flux
	    50 rate = (1-parm(3))*get(4)-get(5)  #parm(3)=fD_fraction of decomposed P to D
	    100 save -rate*time
	   end
	DOM
	   start
	    10 rate = (1-parm(1))*get(4)+parm(2)* get(2)+get(5)+(get(8)+get(9))-get(1)-(get(6)-get(7))-get(14)
	    100 save -rate* time
	   end
	QOM
	   start
	    10 mQOM = kin("QOM")
	    20 D = kin("DOM")
	    30 flux1 = parm(1) * (1-mQOM/parm(2))* D #adsorption flux, parm(1)=adsorption constant, parm(2)=Qmax
	    40 put(flux1,6)  #adsorption flux
	    50 flux2 = parm(3) * (mQOM/parm(2)) #parm(3)=desorption constant, parm(2)=Qmax
	    60 put(flux2,7)  #desorption flux
	    70 rate = get(6)-get(7)
	    100 save -rate * time
	   end
	EP
	   start
	    10 ep = kin("EP")
	    20 flux1 = parm(1)*ep #enzyme decay
	    30 put (flux1,8)
	    40 rate = get(3)-get(8)
	    100 save -rate * time
	   end
	EM
	   start
	    10 em = kin("EM")
	    20 flux1= parm(1)* em
	    30 put (flux1,9)
	    40 rate = get(3)-get(9)
	    100  save -rate * time
	   end
	respiration
	   start
	    10 rate = (1- parm(1))*get(1)+(get(11)*1.44*get(11)/(get(11)+get(12)+get(13))+get(12)*9*get(12)/(get(11)+get(12)+get(13))-get(13)*20.24*get(13)/(get(11)+get(12)+get(13)))*12 #parm(1)=CUE
	    20 put (rate, 10)
	    30 save -rate * time
	   end
	Tot
	   start
	    10 rate = -get(10)-(GAS('redoxCH4(g)')+tot('CH4'))*12
	    20 save -rate * time
	   end
	Salt
	   start
	    10 salt=kin("salt")
	    20 rate = parm(1)*(0.10-salt)   ## The incoming concentration is important
	    30 save -rate * time
	   end
	Caero
	   start
	    10 rate = get(11)*2.44
	    30 save -rate * time
	   end
	Csulr
	   start
	    10 rate = get(12)*10
	    30 save -rate * time
	   end
	Cmeth
	   start
	    10 rate = get(13)*41.48
	    30 save -rate * time
	   end
	SELECTED_OUTPUT
	  reset false
	  file closed_redox_sw4.txt
	USER_PUNCH
	  start
	  heading Time pH  Ozero HS CH4 CO2g CO2 SC  fsl1  fsl2  fsl3  fsl4 POM MOM QOM DOM BA EP EM IC Total OrgAcid Aero SulR Meth Caero Csulr Cmeth Na  K  Ca  Mg  PO4  Cl  SO4 NH4 HCO3 FeS Pyrite 
	  10 PUNCH SIM_TIME
	  20 PUNCH -la("H+")
	  30 PUNCH mol("Ozero2")  tot('Sulfide')
	  40 PUNCH GAS('redoxCH4(g)')+tot('CH4')  GAS('redoxCO2(g)')  tot('C(4)')
	  50 PUNCH CALC_VALUE ("SC_T25")
	  60 PUNCH CALC_VALUE("fsl1")  CALC_VALUE("fsl2")  CALC_VALUE("fsl3")  CALC_VALUE("fsl4")
	  70 PUNCH kin('POM') kin('MOM') kin('QOM') kin('DOM') kin('BA') kin('EP') kin('EM') 
	  80 PUNCH kin('respiration') kin("Tot") kin('OAC') kin('Aero')  kin('SulR')  kin('Meth')
	  90 PUNCH kin('Caero') kin('Csulr') kin('Cmeth')
	  100 PUNCH tot("Na")  tot("K")  mol("Ca+2")  tot("Mg") tot("P")  tot("Cl")  tot("Sulfate") tot ("Amm")  tot("C(4)")
	  110 PUNCH equi("redoxFeS(ppt)")  equi("redoxPyrite")
	  end
	END
-------------------------------------------------------
Beginning of initial exchange-composition calculations.
-------------------------------------------------------

Exchange 1.	

X                1.600e+01 mol

	                               Equiv-    Equivalent      Log 
	Species             Moles      alents      Fraction     Gamma

	CaX2              5.136e+00   1.027e+01   6.421e-01     0.000
	MgX2              2.793e+00   5.586e+00   3.491e-01     0.000
	NaX               7.092e-02   7.092e-02   4.433e-03     0.000
	AmmH4X            4.180e-02   4.180e-02   2.612e-03     0.000
	KX                2.760e-02   2.760e-02   1.725e-03     0.000
	HX                7.524e-04   7.524e-04   4.703e-05    -0.016

------------------------------------------------------
Beginning of initial surface-composition calculations.
------------------------------------------------------

Surface 1.	

Diffuse Double Layer Surface-Complexation Model

H             
	  1.144e-09  Surface + diffuse layer charge, eq
	 -5.139e-01  Surface charge, eq
	 -1.814e-02  sigma, C/m²
	 -1.120e-01  psi, V
	  4.360e+00  -F*psi/RT
	  7.824e+01  exp(-F*psi/RT)
	  3.417e+04  specific area, m²/g
	  2.734e+06  m² for   8.000e+01 g

	Water in diffuse layer: 2.734e+01 kg, 94.2% of total DDL-water.

	Total moles in diffuse layer (excluding water), Donnan calculation.
	Donnan Layer potential, psi_DL = -4.521e-02 V.
	Boltzmann factor, exp(-psi_DL * F / RT) = 5.811e+00 (= c_DL / c_free if z is +1).

	Element       	     Moles
	Alanine       	  4.2219e-05
	Amm           	  6.0117e-03
	C             	  8.5044e-05
	Ca            	  1.6867e-01
	Cl            	  6.2575e-04
	Cysteine      	  4.2994e-05
	Ferric        	  4.4787e-03
	Glutamine     	  4.2128e-05
	Glycine       	  2.4508e-04
	H             	  3.3920e-02
	K             	  4.4476e-03
	Methane       	  2.7338e-05
	Mg            	  7.2787e-02
	Na            	  1.8108e-02
	O             	  9.9991e-03
	Ozero         	  1.3973e-02
	P             	  2.3987e-05
	Sulfate       	  7.3458e-06
	Sulfide       	  1.5674e-06
	Threonine     	  4.2127e-05
	Tyrosine      	  4.2127e-05

H_a           
	  3.837e-02  moles
	                                   Mole                     Log
	Species               Moles    Fraction    Molality    Molality

	H_a-              3.718e-02       0.969   1.971e-02      -1.705
	H_aCa+            8.730e-04       0.023   4.626e-04      -3.335
	H_aMg+            2.995e-04       0.008   1.587e-04      -3.799
	H_aH              1.267e-05       0.000   6.716e-06      -5.173

H_ab          
	  6.378e-02  moles
	                                   Mole                     Log
	Species               Moles    Fraction    Molality    Molality

	H_ab-2            6.291e-02       0.986   3.334e-02      -1.477
	H_abCa            4.670e-04       0.007   2.475e-04      -3.606
	H_abH-            2.762e-04       0.004   1.464e-04      -3.835
	H_abMg            1.273e-04       0.002   6.745e-05      -4.171
	H_abH2            9.414e-08       0.000   4.989e-08      -7.302

H_ad          
	  6.378e-02  moles
	                                   Mole                     Log
	Species               Moles    Fraction    Molality    Molality

	H_adCa            2.400e-02       0.376   1.272e-02      -1.896
	H_ad-2            1.904e-02       0.298   1.009e-02      -1.996
	H_adH-            1.419e-02       0.223   7.522e-03      -2.124
	H_adMg            6.541e-03       0.103   3.467e-03      -2.460
	H_adH2            4.838e-06       0.000   2.564e-06      -5.591

H_af          
	  6.378e-02  moles
	                                   Mole                     Log
	Species               Moles    Fraction    Molality    Molality

	H_afH-            5.540e-02       0.869   2.936e-02      -1.532
	H_afCa            8.348e-03       0.131   4.424e-03      -2.354
	H_afH2            1.888e-05       0.000   1.001e-05      -5.000
	H_af-2            1.205e-05       0.000   6.385e-06      -5.195
	H_afMg            3.864e-06       0.000   2.048e-06      -5.689

H_ah          
	  6.378e-02  moles
	                                   Mole                     Log
	Species               Moles    Fraction    Molality    Molality

	H_ahH-            6.374e-02       0.999   3.378e-02      -1.471
	H_ahH2            2.172e-05       0.000   1.151e-05      -4.939
	H_ahCa            1.708e-05       0.000   9.052e-06      -5.043
	H_ahMg            4.446e-06       0.000   2.356e-06      -5.628
	H_ah-2            2.896e-09       0.000   1.535e-09      -8.814

H_b           
	  3.837e-02  moles
	                                   Mole                     Log
	Species               Moles    Fraction    Molality    Molality

	H_b-              2.720e-02       0.709   1.441e-02      -1.841
	H_bCa+            8.227e-03       0.214   4.360e-03      -2.361
	H_bMg+            2.823e-03       0.074   1.496e-03      -2.825
	H_bH              1.194e-04       0.003   6.329e-05      -4.199

H_bc          
	  6.378e-02  moles
	                                   Mole                     Log
	Species               Moles    Fraction    Molality    Molality

	H_bcCa            3.020e-02       0.474   1.601e-02      -1.796
	H_bc-2            2.395e-02       0.376   1.269e-02      -1.896
	H_bcMg            8.231e-03       0.129   4.362e-03      -2.360
	H_bcH-            1.386e-03       0.022   7.348e-04      -3.134
	H_bcH2            6.088e-06       0.000   3.226e-06      -5.491

H_be          
	  6.378e-02  moles
	                                   Mole                     Log
	Species               Moles    Fraction    Molality    Molality

	H_beH-            6.230e-02       0.977   3.301e-02      -1.481
	H_be-2            9.374e-04       0.015   4.968e-04      -3.304
	H_beH2            2.735e-04       0.004   1.450e-04      -3.839
	H_beCa            2.151e-04       0.003   1.140e-04      -3.943
	H_beMg            5.598e-05       0.001   2.966e-05      -4.528

H_bg          
	  6.378e-05  moles
	                                   Mole                     Log
	Species               Moles    Fraction    Molality    Molality

	H_bgH-            6.323e-05       0.991   3.351e-05      -4.475
	H_bgH2            2.776e-07       0.004   1.471e-07      -6.832
	H_bgCa            2.183e-07       0.003   1.157e-07      -6.937
	H_bgMg            5.681e-08       0.001   3.011e-08      -7.521
	H_bg-2            1.988e-10       0.000   1.053e-10      -9.977

H_c           
	  3.837e-02  moles
	                                   Mole                     Log
	Species               Moles    Fraction    Molality    Molality

	H_cCa+            2.386e-02       0.622   1.264e-02      -1.898
	H_cMg+            8.185e-03       0.213   4.337e-03      -2.363
	H_c-              5.983e-03       0.156   3.171e-03      -2.499
	H_cH              3.463e-04       0.009   1.835e-04      -3.736

H_cd          
	  6.378e-05  moles
	                                   Mole                     Log
	Species               Moles    Fraction    Molality    Molality

	H_cdCa            4.979e-05       0.781   2.639e-05      -4.579
	H_cdMg            1.357e-05       0.213   7.192e-06      -5.143
	H_cd-2            2.326e-07       0.004   1.232e-07      -6.909
	H_cdH-            1.734e-07       0.003   9.189e-08      -7.037
	H_cdH2            1.004e-08       0.000   5.319e-09      -8.274

H_cf          
	  6.378e-02  moles
	                                   Mole                     Log
	Species               Moles    Fraction    Molality    Molality

	H_cfH-            5.718e-02       0.896   3.030e-02      -1.519
	H_cfH2            3.309e-03       0.052   1.754e-03      -2.756
	H_cfCa            2.602e-03       0.041   1.379e-03      -2.860
	H_cfMg            6.773e-04       0.011   3.589e-04      -3.445
	H_cf-2            1.244e-05       0.000   6.591e-06      -5.181

H_ch          
	  6.378e-02  moles
	                                   Mole                     Log
	Species               Moles    Fraction    Molality    Molality

	H_chH-            5.719e-02       0.897   3.031e-02      -1.518
	H_chH2            3.310e-03       0.052   1.754e-03      -2.756
	H_chCa            2.603e-03       0.041   1.379e-03      -2.860
	H_chMg            6.774e-04       0.011   3.590e-04      -3.445
	H_ch-2            2.599e-09       0.000   1.377e-09      -8.861

H_d           
	  3.837e-02  moles
	                                   Mole                     Log
	Species               Moles    Fraction    Molality    Molality

	H_dCa+            2.786e-02       0.726   1.477e-02      -1.831
	H_dMg+            9.560e-03       0.249   5.066e-03      -2.295
	H_d-              5.425e-04       0.014   2.875e-04      -3.541
	H_dH              4.045e-04       0.011   2.144e-04      -3.669

H_de          
	  6.378e-05  moles
	                                   Mole                     Log
	Species               Moles    Fraction    Molality    Molality

	H_deH-            2.552e-05       0.400   1.352e-05      -4.869
	H_deH2            1.903e-05       0.298   1.008e-05      -4.996
	H_deCa            1.496e-05       0.235   7.928e-06      -5.101
	H_deMg            3.894e-06       0.061   2.063e-06      -5.685
	H_de-2            3.840e-07       0.006   2.035e-07      -6.691

H_dg          
	  6.378e-05  moles
	                                   Mole                     Log
	Species               Moles    Fraction    Molality    Molality

	H_dgH-            2.567e-05       0.402   1.360e-05      -4.866
	H_dgH2            1.914e-05       0.300   1.014e-05      -4.994
	H_dgCa            1.505e-05       0.236   7.976e-06      -5.098
	H_dgMg            3.917e-06       0.061   2.076e-06      -5.683
	H_dg-2            8.071e-11       0.000   4.277e-11     -10.369

H_e           
	  1.919e-02  moles
	                                   Mole                     Log
	Species               Moles    Fraction    Molality    Molality

	H_eH              1.863e-02       0.971   9.875e-03      -2.005
	H_e-              2.804e-04       0.015   1.486e-04      -3.828
	H_eCa+            2.082e-04       0.011   1.103e-04      -3.957
	H_eMg+            6.666e-05       0.003   3.533e-05      -4.452

H_f           
	  1.919e-02  moles
	                                   Mole                     Log
	Species               Moles    Fraction    Molality    Molality

	H_fH              1.891e-02       0.985   1.002e-02      -1.999
	H_fCa+            2.112e-04       0.011   1.119e-04      -3.951
	H_fMg+            6.763e-05       0.004   3.584e-05      -4.446
	H_f-              4.112e-06       0.000   2.179e-06      -5.662

H_g           
	  1.919e-02  moles
	                                   Mole                     Log
	Species               Moles    Fraction    Molality    Molality

	H_gH              1.891e-02       0.985   1.002e-02      -1.999
	H_gCa+            2.113e-04       0.011   1.120e-04      -3.951
	H_gMg+            6.765e-05       0.004   3.585e-05      -4.446
	H_g-              5.945e-08       0.000   3.151e-08      -7.502

H_h           
	  1.919e-02  moles
	                                   Mole                     Log
	Species               Moles    Fraction    Molality    Molality

	H_hH              1.891e-02       0.985   1.002e-02      -1.999
	H_hCa+            2.113e-04       0.011   1.120e-04      -3.951
	H_hMg+            6.765e-05       0.004   3.585e-05      -4.446
	H_h-              8.594e-10       0.000   4.554e-10      -9.342

Hfo           
	 -9.038e-14  Surface + diffuse layer charge, eq
	 -7.866e-06  Surface charge, eq
	 -4.518e-06  sigma, C/m²
	 -5.587e-05  psi, V
	  2.175e-03  -F*psi/RT
	  1.002e+00  exp(-F*psi/RT)
	  6.000e+02  specific area, m²/g
	  1.680e+05  m² for   2.800e+02 g

	Water in diffuse layer: 1.680e+00 kg,  5.8% of total DDL-water.

	Total moles in diffuse layer (excluding water), Donnan calculation.
	Donnan Layer potential, psi_DL = -4.796e-05 V.
	Boltzmann factor, exp(-psi_DL * F / RT) = 1.002e+00 (= c_DL / c_free if z is +1).

	Element       	     Moles
	Alanine       	  8.7041e-05
	Amm           	  6.3963e-05
	C             	  1.5098e-05
	Ca            	  3.0861e-04
	Cl            	  2.2304e-04
	Cysteine      	  8.7041e-05
	Ferric        	  8.4079e-05
	Glutamine     	  8.7041e-05
	Glycine       	  8.7203e-05
	H             	  5.0128e-04
	K             	  4.7131e-05
	Methane       	  1.6801e-06
	Mg            	  1.3322e-04
	Na            	  1.9189e-04
	O             	  3.1561e-04
	Ozero         	  8.5873e-04
	P             	  8.3800e-06
	Sulfate       	  6.6964e-06
	Sulfide       	  1.6785e-07
	Threonine     	  8.7041e-05
	Tyrosine      	  8.7041e-05

Hfo_s         
	  5.000e-06  moles
	                                   Mole                     Log
	Species               Moles    Fraction    Molality    Molality

	Hfo_sOHCa+2       4.104e-06       0.821   2.175e-06      -5.663
	Hfo_sOH2+         6.131e-07       0.123   3.249e-07      -6.488
	Hfo_sOH           2.802e-07       0.056   1.485e-07      -6.828
	Hfo_sO-           2.934e-09       0.001   1.555e-09      -8.808

Hfo_w         
	  2.000e-04  moles
	                                   Mole                     Log
	Species               Moles    Fraction    Molality    Molality

	Hfo_wOH2+         7.692e-05       0.385   4.076e-05      -4.390
	Hfo_wHPO4-        6.795e-05       0.340   3.601e-05      -4.444
	Hfo_wOH           3.516e-05       0.176   1.863e-05      -4.730
	Hfo_wPO4-2        1.295e-05       0.065   6.861e-06      -5.164
	Hfo_wH2PO4        6.056e-06       0.030   3.209e-06      -5.494
	Hfo_wOMg+         5.334e-07       0.003   2.827e-07      -6.549
	Hfo_wO-           3.681e-07       0.002   1.951e-07      -6.710
	Hfo_wOCa+         6.945e-08       0.000   3.680e-08      -7.434
	Hfo_wSulfateO4-   7.769e-10       0.000   4.117e-10      -9.385
	Hfo_wOHSulfateO4-2   7.085e-10       0.000   3.755e-10      -9.425

-----------------------------------------
Beginning of batch-reaction calculations.
-----------------------------------------

Reaction step 1.

WARNING: Zero divide in BASIC line
 90  rate = get(1)*parm(4)-get(2)-get(3)-get(3)+get(11)*get(11)/(get(11)+get(12)+get(13))+get(12)*get(12)/(get(11)+get(12)+get(13))+get(13)*get(13)/(get(11)+get(12)+get(13)).
Value set to zero.
WARNING: Zero divide in BASIC line
 90  rate = get(1)*parm(4)-get(2)-get(3)-get(3)+get(11)*get(11)/(get(11)+get(12)+get(13))+get(12)*get(12)/(get(11)+get(12)+get(13))+get(13)*get(13)/(get(11)+get(12)+get(13)).
Value set to zero.
WARNING: Zero divide in BASIC line
 90  rate = get(1)*parm(4)-get(2)-get(3)-get(3)+get(11)*get(11)/(get(11)+get(12)+get(13))+get(12)*get(12)/(get(11)+get(12)+get(13))+get(13)*get(13)/(get(11)+get(12)+get(13)).
Value set to zero.
WARNING: Zero divide in BASIC line
 20  rate = parm(1)* mDOM+parm(2)* get(2)-get(11)*2.44*get(11)/(get(11)+get(12)+get(13))-get(12)*10*get(12)/(get(11)+get(12)+get(13))-get(13)*41.48*get(13)/(get(11)+get(12)+get(13)).
Value set to zero.
WARNING: Zero divide in BASIC line
 20  rate = parm(1)* mDOM+parm(2)* get(2)-get(11)*2.44*get(11)/(get(11)+get(12)+get(13))-get(12)*10*get(12)/(get(11)+get(12)+get(13))-get(13)*41.48*get(13)/(get(11)+get(12)+get(13)).
Value set to zero.
WARNING: Zero divide in BASIC line
 20  rate = parm(1)* mDOM+parm(2)* get(2)-get(11)*2.44*get(11)/(get(11)+get(12)+get(13))-get(12)*10*get(12)/(get(11)+get(12)+get(13))-get(13)*41.48*get(13)/(get(11)+get(12)+get(13)).
Value set to zero.
WARNING: CVode incomplete at cvode_steps 100. Cell: 0	Time: 8.203827e-01	Cvode calls: 1, continuing...

Using solution 1.	
Using exchange 1.	Exchange assemblage after simulation 3.
Using surface 1.	
Using pure phase assemblage 1.	
Using gas phase 1.	fixed volume gas phase
Using kinetics 1.	Decomposition  

Kinetics 1.	Decomposition  

	Time step: 1 seconds  (Incremented time: 1 seconds)

	Rate name       Delta Moles Total Moles   Reactant        Coefficient

	BA                1.216e-01   6.416e-01   CH2O                      0
	OAC               4.487e-02   4.587e-02   CH2O                      0
	Aero              1.059e-02   1.011e+00   CH2O                      0
	                                          HCO3                  -1.44
	                                          Ozero2                 1.44
	SulR              1.164e-06   1.000e+00   CH2O                      0
	                                          HCO3                     -9
	                                          HSulfide-              -4.5
	                                          SulfateO4-2             4.5
	Meth             -0.000e+00   1.000e+00   CH2O                      0
	                                          HCO3                  20.24
	                                          MethaneH4            -20.24
	POM              -1.441e-01   4.566e+00   CH2O                      0
	MOM               7.433e-02   1.597e+01   CH2O                      0
	DOM              -2.671e-01   2.129e-01   CH2O                      0
	QOM              -8.663e-03   1.758e+00   CH2O                      0
	EP                5.309e-04   5.253e-02   CH2O                      0
	EM                5.309e-04   5.253e-02   CH2O                      0
	respiration       3.689e-01   3.689e-01   CH2O                      0
	Tot              -3.691e-01   2.311e+01   CH2O                      0
	Salt              9.851e-04   1.985e-03   CH2O                      0
	                                          Ca+2                     -2
	                                          Cl-                     -22
	                                          HCO3                     -3
	                                          K+                       -1
	                                          Mg+2                     -4
	                                          Na+                     -25
	                                          Nitrate                  -5
	                                          Sulfate                  -4
	Caero             2.588e-02   2.588e-02   CH2O                      0
	Csulr             1.557e-04   1.557e-04   CH2O                      0
	Cmeth            -0.000e+00   0.000e+00   CH2O                      0

-----------------------------------Gas phase-----------------------------------

Total pressure:  0.01      atmospheres 
    Gas volume:   9.00e-01 liters
  Molar volume:   2.49e+03 liters/mole

                                                        Moles in gas
                                            ----------------------------------
Component                log P           P     Initial       Final       Delta

redoxCH4(g)              -3.41   3.893e-04   0.000e+00   1.432e-05   1.432e-05
redoxCO2(g)              -2.03   9.435e-03   1.162e-05   3.471e-04   3.355e-04
redoxO2(g)               -4.89   1.280e-05   7.357e-03   4.709e-07  -7.357e-03

-------------------------------Phase assemblage--------------------------------

                                                      Moles in assemblage
Phase               SI  log IAP  log K(T, P)   Initial       Final       Delta

Hydroxyapatite    0.00    -3.42     -3.42    1.000e-03   3.786e-04  -6.214e-04
redoxCalcite     -1.61   -10.09     -8.48    1.000e-03           0  -1.000e-03
redoxFe(OH)3(a)   -0.00     4.89      4.89    2.000e+00   2.005e+00   4.653e-03
redoxFeS(ppt)    -2.33    -6.24     -3.92    1.000e-03           0  -1.000e-03
redoxPyrite       0.00   -18.48    -18.48    1.000e-03   1.402e-03   4.015e-04

------------------------------Surface composition------------------------------

Diffuse Double Layer Surface-Complexation Model

H             
	 -1.504e-10  Surface + diffuse layer charge, eq
	 -5.851e-01  Surface charge, eq
	 -2.065e-02  sigma, C/m²
	 -8.141e-02  psi, V
	  3.169e+00  -F*psi/RT
	  2.378e+01  exp(-F*psi/RT)
	  3.417e+04  specific area, m²/g
	  2.734e+06  m² for   8.000e+01 g

	Water in diffuse layer: 2.734e+01 kg, 94.2% of total DDL-water.

	Total moles in diffuse layer (excluding water), Donnan calculation.
	Donnan Layer potential, psi_DL = -2.460e-02 V.
	Boltzmann factor, exp(-psi_DL * F / RT) = 2.605e+00 (= c_DL / c_free if z is +1).

	Element       	     Moles
	Alanine       	  1.2112e-04
	Amm           	  6.3037e-03
	C             	  1.5691e-02
	Ca            	  2.0495e-01
	Cl            	  1.7010e-02
	Cysteine      	  1.2235e-04
	Ferric        	  3.8957e-06
	Ferrous       	  1.6010e-05
	Glutamine     	  1.2098e-04
	Glycine       	  3.2165e-04
	H             	  7.6163e-02
	K             	  4.7940e-03
	Methane       	  1.4671e-05
	Mg            	  8.8203e-02
	Na            	  2.3993e-02
	Nitrate       	  3.6792e-03
	O             	  6.5712e-02
	Ozero         	  8.9557e-07
	P             	  1.4025e-03
	Sulfate       	  2.6882e-03
	Sulfide       	  1.7549e-04
	Threonine     	  1.2098e-04
	Tyrosine      	  1.2098e-04

H_a           
	  3.837e-02  moles
	                                   Mole                     Log
	Species               Moles    Fraction    Molality    Molality

	H_a-              3.780e-02       0.985   2.003e-02      -1.698
	H_aCa+            4.203e-04       0.011   2.228e-04      -3.652
	H_aMg+            1.441e-04       0.004   7.636e-05      -4.117
	H_aH              8.992e-06       0.000   4.766e-06      -5.322

H_ab          
	  6.378e-02  moles
	                                   Mole                     Log
	Species               Moles    Fraction    Molality    Molality

	H_ab-2            6.330e-02       0.993   3.355e-02      -1.474
	H_abCa            2.226e-04       0.003   1.180e-04      -3.928
	H_abH-            1.940e-04       0.003   1.028e-04      -3.988
	H_abMg            6.060e-05       0.001   3.212e-05      -4.493
	H_abH2            4.615e-08       0.000   2.446e-08      -7.611

H_ad          
	  6.378e-02  moles
	                                   Mole                     Log
	Species               Moles    Fraction    Molality    Molality

	H_ad-2            2.797e-02       0.439   1.483e-02      -1.829
	H_adCa            1.670e-02       0.262   8.853e-03      -2.053
	H_adH-            1.456e-02       0.228   7.716e-03      -2.113
	H_adMg            4.547e-03       0.071   2.410e-03      -2.618
	H_adH2            3.463e-06       0.000   1.836e-06      -5.736

H_af          
	  6.378e-02  moles
	                                   Mole                     Log
	Species               Moles    Fraction    Molality    Molality

	H_afH-            5.783e-02       0.907   3.065e-02      -1.514
	H_afCa            5.913e-03       0.093   3.135e-03      -2.504
	H_af-2            1.802e-05       0.000   9.552e-06      -5.020
	H_afH2            1.376e-05       0.000   7.293e-06      -5.137
	H_afMg            2.734e-06       0.000   1.449e-06      -5.839

H_ah          
	  6.378e-02  moles
	                                   Mole                     Log
	Species               Moles    Fraction    Molality    Molality

	H_ahH-            6.375e-02       1.000   3.379e-02      -1.471
	H_ahH2            1.517e-05       0.000   8.039e-06      -5.095
	H_ahCa            1.159e-05       0.000   6.144e-06      -5.212
	H_ahMg            3.014e-06       0.000   1.598e-06      -5.797
	H_ah-2            4.150e-09       0.000   2.200e-09      -8.658

H_b           
	  3.837e-02  moles
	                                   Mole                     Log
	Species               Moles    Fraction    Molality    Molality

	H_b-              3.210e-02       0.837   1.701e-02      -1.769
	H_bCa+            4.598e-03       0.120   2.437e-03      -2.613
	H_bMg+            1.576e-03       0.041   8.354e-04      -3.078
	H_bH              9.837e-05       0.003   5.214e-05      -4.283

H_bc          
	  6.378e-02  moles
	                                   Mole                     Log
	Species               Moles    Fraction    Molality    Molality

	H_bc-2            3.543e-02       0.555   1.878e-02      -1.726
	H_bcCa            2.116e-02       0.332   1.121e-02      -1.950
	H_bcMg            5.760e-03       0.090   3.053e-03      -2.515
	H_bcH-            1.431e-03       0.022   7.587e-04      -3.120
	H_bcH2            4.387e-06       0.000   2.325e-06      -5.634

H_be          
	  6.378e-02  moles
	                                   Mole                     Log
	Species               Moles    Fraction    Molality    Molality

	H_beH-            6.207e-02       0.973   3.290e-02      -1.483
	H_be-2            1.338e-03       0.021   7.093e-04      -3.149
	H_beH2            1.902e-04       0.003   1.008e-04      -3.996
	H_beCa            1.454e-04       0.002   7.707e-05      -4.113
	H_beMg            3.781e-05       0.001   2.004e-05      -4.698

H_bg          
	  6.378e-05  moles
	                                   Mole                     Log
	Species               Moles    Fraction    Molality    Molality

	H_bgH-            6.340e-05       0.994   3.360e-05      -4.474
	H_bgH2            1.943e-07       0.003   1.030e-07      -6.987
	H_bgCa            1.485e-07       0.002   7.872e-08      -7.104
	H_bgMg            3.862e-08       0.001   2.047e-08      -7.689
	H_bg-2            2.855e-10       0.000   1.514e-10      -9.820

H_c           
	  3.837e-02  moles
	                                   Mole                     Log
	Species               Moles    Fraction    Molality    Molality

	H_cCa+            2.026e-02       0.528   1.074e-02      -1.969
	H_c-              1.073e-02       0.280   5.688e-03      -2.245
	H_cMg+            6.945e-03       0.181   3.681e-03      -2.434
	H_cH              4.335e-04       0.011   2.298e-04      -3.639

H_cd          
	  6.378e-05  moles
	                                   Mole                     Log
	Species               Moles    Fraction    Molality    Molality

	H_cdCa            4.954e-05       0.777   2.626e-05      -4.581
	H_cdMg            1.349e-05       0.211   7.150e-06      -5.146
	H_cd-2            4.885e-07       0.008   2.589e-07      -6.587
	H_cdH-            2.543e-07       0.004   1.348e-07      -6.870
	H_cdH2            1.027e-08       0.000   5.445e-09      -8.264

H_cf          
	  6.378e-02  moles
	                                   Mole                     Log
	Species               Moles    Fraction    Molality    Molality

	H_cfH-            5.908e-02       0.926   3.131e-02      -1.504
	H_cfH2            2.387e-03       0.037   1.265e-03      -2.898
	H_cfCa            1.824e-03       0.029   9.670e-04      -3.015
	H_cfMg            4.743e-04       0.007   2.514e-04      -3.600
	H_cf-2            1.841e-05       0.000   9.758e-06      -5.011

H_ch          
	  6.378e-02  moles
	                                   Mole                     Log
	Species               Moles    Fraction    Molality    Molality

	H_chH-            5.909e-02       0.927   3.132e-02      -1.504
	H_chH2            2.387e-03       0.037   1.265e-03      -2.898
	H_chCa            1.825e-03       0.029   9.672e-04      -3.014
	H_chMg            4.745e-04       0.007   2.515e-04      -3.599
	H_ch-2            3.847e-09       0.000   2.039e-09      -8.691

H_d           
	  3.837e-02  moles
	                                   Mole                     Log
	Species               Moles    Fraction    Molality    Molality

	H_dCa+            2.730e-02       0.712   1.447e-02      -1.839
	H_dMg+            9.359e-03       0.244   4.961e-03      -2.304
	H_d-              1.122e-03       0.029   5.950e-04      -3.226
	H_dH              5.842e-04       0.015   3.097e-04      -3.509

H_de          
	  6.378e-05  moles
	                                   Mole                     Log
	Species               Moles    Fraction    Molality    Molality

	H_deH-            3.121e-05       0.489   1.655e-05      -4.781
	H_deH2            1.625e-05       0.255   8.612e-06      -5.065
	H_deCa            1.242e-05       0.195   6.582e-06      -5.182
	H_deMg            3.229e-06       0.051   1.711e-06      -5.767
	H_de-2            6.729e-07       0.011   3.567e-07      -6.448

H_dg          
	  6.378e-05  moles
	                                   Mole                     Log
	Species               Moles    Fraction    Molality    Molality

	H_dgH-            3.155e-05       0.495   1.672e-05      -4.777
	H_dgH2            1.642e-05       0.257   8.703e-06      -5.060
	H_dgCa            1.255e-05       0.197   6.652e-06      -5.177
	H_dgMg            3.263e-06       0.051   1.730e-06      -5.762
	H_dg-2            1.421e-10       0.000   7.532e-11     -10.123

H_e           
	  1.919e-02  moles
	                                   Mole                     Log
	Species               Moles    Fraction    Molality    Molality

	H_eH              1.860e-02       0.969   9.861e-03      -2.006
	H_e-              4.010e-04       0.021   2.126e-04      -3.672
	H_eCa+            1.410e-04       0.007   7.474e-05      -4.126
	H_eMg+            4.511e-05       0.002   2.391e-05      -4.621

H_f           
	  1.919e-02  moles
	                                   Mole                     Log
	Species               Moles    Fraction    Molality    Molality

	H_fH              1.899e-02       0.990   1.007e-02      -1.997
	H_fCa+            1.440e-04       0.008   7.632e-05      -4.117
	H_fMg+            4.606e-05       0.002   2.441e-05      -4.612
	H_f-              5.919e-06       0.000   3.137e-06      -5.503

H_g           
	  1.919e-02  moles
	                                   Mole                     Log
	Species               Moles    Fraction    Molality    Molality

	H_gH              1.900e-02       0.990   1.007e-02      -1.997
	H_gCa+            1.440e-04       0.008   7.634e-05      -4.117
	H_gMg+            4.607e-05       0.002   2.442e-05      -4.612
	H_g-              8.558e-08       0.000   4.536e-08      -7.343

H_h           
	  1.919e-02  moles
	                                   Mole                     Log
	Species               Moles    Fraction    Molality    Molality

	H_hH              1.900e-02       0.990   1.007e-02      -1.997
	H_hCa+            1.440e-04       0.008   7.634e-05      -4.117
	H_hMg+            4.607e-05       0.002   2.442e-05      -4.612
	H_h-              1.237e-09       0.000   6.557e-10      -9.183

Hfo           
	 -3.582e-14  Surface + diffuse layer charge, eq
	 -1.394e-04  Surface charge, eq
	 -8.004e-05  sigma, C/m²
	 -4.651e-04  psi, V
	  1.810e-02  -F*psi/RT
	  1.018e+00  exp(-F*psi/RT)
	  6.000e+02  specific area, m²/g
	  1.680e+05  m² for   2.800e+02 g

	Water in diffuse layer: 1.680e+00 kg,  5.8% of total DDL-water.

	Total moles in diffuse layer (excluding water), Donnan calculation.
	Donnan Layer potential, psi_DL = -1.871e-04 V.
	Boltzmann factor, exp(-psi_DL * F / RT) = 1.007e+00 (= c_DL / c_free if z is +1).

	Element       	     Moles
	Alanine       	  4.9671e-05
	Amm           	  1.5036e-04
	C             	  1.5557e-03
	Ca            	  1.9532e-03
	Cl            	  2.7033e-03
	Cysteine      	  4.9459e-05
	Ferric        	  1.1463e-07
	Ferrous       	  1.6362e-07
	Glutamine     	  4.9696e-05
	Glycine       	  5.1036e-05
	H             	  4.5029e-03
	K             	  1.1409e-04
	Methane       	  9.0162e-07
	Mg            	  8.4608e-04
	Na            	  5.7087e-04
	Nitrate       	  5.8471e-04
	O             	  9.0236e-03
	Ozero         	  5.5040e-08
	P             	  1.9164e-04
	Sulfate       	  5.9358e-04
	Sulfide       	  1.3461e-05
	Threonine     	  4.9696e-05
	Tyrosine      	  4.9696e-05

Hfo_s         
	  5.000e-06  moles
	                                   Mole                     Log
	Species               Moles    Fraction    Molality    Molality

	Hfo_sOHCa+2       4.633e-06       0.927   2.456e-06      -5.610
	Hfo_sOH2+         3.051e-07       0.061   1.617e-07      -6.791
	Hfo_sOH           5.975e-08       0.012   3.167e-08      -7.499
	Hfo_sOFerrous+    1.617e-09       0.000   8.569e-10      -9.067
	Hfo_sO-           2.681e-10       0.000   1.421e-10      -9.847

Hfo_w         
	  2.000e-04  moles
	                                   Mole                     Log
	Species               Moles    Fraction    Molality    Molality

	Hfo_wHPO4-        1.410e-04       0.705   7.475e-05      -4.126
	Hfo_wH2PO4        2.934e-05       0.147   1.555e-05      -4.808
	Hfo_wOH2+         1.504e-05       0.075   7.972e-06      -5.098
	Hfo_wPO4-2        1.151e-05       0.058   6.102e-06      -5.215
	Hfo_wOH           2.945e-06       0.015   1.561e-06      -5.807
	Hfo_wOMg+         1.013e-07       0.001   5.369e-08      -7.270
	Hfo_wO-           1.321e-08       0.000   7.004e-09      -8.155
	Hfo_wOCa+         1.320e-08       0.000   6.996e-09      -8.155
	Hfo_wSulfateO4-   9.930e-09       0.000   5.263e-09      -8.279
	Hfo_wOHSulfateO4-2   3.879e-09       0.000   2.056e-09      -8.687
	Hfo_wOFerrous+    7.437e-10       0.000   3.942e-10      -9.404
	Hfo_wOFerrousOH   7.642e-12       0.000   4.051e-12     -11.392

-----------------------------Exchange composition------------------------------

X                1.600e+01 mol

	                               Equiv-    Equivalent      Log 
	Species             Moles      alents      Fraction     Gamma

	CaX2              5.132e+00   1.026e+01   6.415e-01    -0.000
	MgX2              2.788e+00   5.576e+00   3.485e-01    -0.000
	NaX               8.886e-02   8.886e-02   5.554e-03     0.000
	AmmH4X            4.132e-02   4.132e-02   2.583e-03     0.000
	KX                2.809e-02   2.809e-02   1.756e-03     0.000
	HX                7.898e-04   7.898e-04   4.936e-05    -0.031
	FerrousX2         5.821e-04   1.164e-03   7.276e-05    -0.134

-----------------------------Solution composition------------------------------

	Elements           Molality       Moles

	Alanine           3.000e-05   5.660e-05
	Amm               8.886e-05   1.676e-04
	C                 9.303e-04   1.755e-03
	Ca                1.147e-03   2.163e-03
	Cl                1.621e-03   3.058e-03
	Cysteine          2.987e-05   5.635e-05
	Ferric            6.789e-08   1.281e-07
	Ferrous           9.613e-08   1.814e-07
	Glutamine         3.001e-05   5.663e-05
	Glycine           3.060e-05   5.773e-05
	K                 6.742e-05   1.272e-04
	Methane           5.367e-07   1.012e-06
	Mg                4.967e-04   9.370e-04
	Na                3.373e-04   6.364e-04
	Nitrate           3.506e-04   6.614e-04
	Ozero             3.276e-08   6.181e-08
	P                 1.150e-04   2.169e-04
	Sulfate           3.577e-04   6.749e-04
	Sulfide           8.032e-06   1.515e-05
	Threonine         3.001e-05   5.663e-05
	Tyrosine          3.002e-05   5.663e-05

----------------------------Description of solution----------------------------

                                       pH  =   6.590      Charge balance
                                       pe  =  -6.604      Adjusted to redox equilibrium
      Specific Conductance (µS/cm,  25°C)  = 402
                        Activity of water  =   1.000
                 Ionic strength (mol/kgw)  =   5.682e-03
                       Mass of water (kg)  =   1.887e+00
                 Total alkalinity (eq/kg)  =   8.285e-04
                       Total CO2 (mol/kg)  =   9.303e-04
                         Temperature (°C)  =  25.00
                           Pressure (atm)  =  0.01
                  Electrical balance (eq)  =   4.149e-09
 Percent error, 100*(Cat-|An|)/(Cat+|An|)  =   0.00
                               Iterations  = 884
                                  Total H  = 2.094386e+02
                                  Total O  = 1.047270e+02

----------------------------Distribution of species----------------------------

                                               Log       Log       Log    mole V
   Species          Molality    Activity  Molality  Activity     Gamma   cm³/mol

   H+              2.765e-07   2.572e-07    -6.558    -6.590    -0.031      0.00
   OH-             4.222e-08   3.892e-08    -7.374    -7.410    -0.035     (0)  
   H2O             5.551e+01   9.999e-01     1.744    -0.000     0.000     18.07
Alanine       3.000e-05
   Alanine-2       2.999e-05   2.175e-05    -4.523    -4.663    -0.140     (0)  
   H2(Alanine)     1.065e-08   1.066e-08    -7.973    -7.972     0.001     (0)  
   H(Alanine)-     1.357e-09   1.252e-09    -8.867    -8.902    -0.035     (0)  
Amm           8.886e-05
   AmmH4+          8.842e-05   8.135e-05    -4.053    -4.090    -0.036     (0)  
   AmmH4SulfateO4-   2.515e-07   2.321e-07    -6.599    -6.634    -0.035     (0)  
   AmmH3           1.800e-07   1.803e-07    -6.745    -6.744     0.001     (0)  
C(4)          9.303e-04
   HCO3-           6.006e-04   5.554e-04    -3.221    -3.255    -0.034     (0)  
   CO2             3.208e-04   3.212e-04    -3.494    -3.493     0.001     (0)  
   CaHCO3+         6.140e-06   5.678e-06    -5.212    -5.246    -0.034     (0)  
   MgHCO3+         2.435e-06   2.247e-06    -5.613    -5.648    -0.035     (0)  
   CO3-2           1.384e-07   1.013e-07    -6.859    -6.994    -0.136     (0)  
   CaCO3           1.362e-07   1.363e-07    -6.866    -6.865     0.001     (0)  
   NaHCO3          9.704e-08   9.717e-08    -7.013    -7.012     0.001     (0)  
   MgCO3           3.337e-08   3.342e-08    -7.477    -7.476     0.001     (0)  
   FerrousHCO3+    3.666e-09   3.383e-09    -8.436    -8.471    -0.035     (0)  
   NaCO3-          6.358e-10   5.867e-10    -9.197    -9.232    -0.035     (0)  
   FerrousCO3      1.478e-10   1.480e-10    -9.830    -9.830     0.001     (0)  
Ca            1.147e-03
   Ca+2            1.096e-03   8.013e-04    -2.960    -3.096    -0.136     (0)  
   CaSulfateO4     3.536e-05   3.541e-05    -4.451    -4.451     0.001     (0)  
   CaHPO4          7.515e-06   7.525e-06    -5.124    -5.124     0.001     (0)  
   CaHCO3+         6.140e-06   5.678e-06    -5.212    -5.246    -0.034     (0)  
   CaH2PO4+        1.576e-06   1.455e-06    -5.802    -5.837    -0.035     (0)  
   CaCO3           1.362e-07   1.363e-07    -6.866    -6.865     0.001     (0)  
   CaPO4-          7.501e-08   6.922e-08    -7.125    -7.160    -0.035     (0)  
   CaOH+           5.602e-10   5.170e-10    -9.252    -9.287    -0.035     (0)  
   CaHSulfateO4+   5.782e-11   5.335e-11   -10.238   -10.273    -0.035     (0)  
Cl            1.621e-03
   Cl-             1.621e-03   1.494e-03    -2.790    -2.826    -0.035     (0)  
   FerrousCl+      1.361e-10   1.256e-10    -9.866    -9.901    -0.035     (0)  
   FerricCl+2      8.239e-17   5.975e-17   -16.084   -16.224    -0.140     (0)  
   FerricCl2+      4.322e-19   3.988e-19   -18.364   -18.399    -0.035     (0)  
   FerricCl3       5.952e-23   5.960e-23   -22.225   -22.225     0.001     (0)  
Cysteine      2.987e-05
   Cysteine-2      2.978e-05   2.160e-05    -4.526    -4.666    -0.140     (0)  
   H2(Cysteine)    8.598e-08   8.609e-08    -7.066    -7.065     0.001     (0)  
   H(Cysteine)-    3.087e-10   2.849e-10    -9.510    -9.545    -0.035     (0)  
Ferric        6.789e-08
   Ferric(OH)2+    4.636e-08   4.279e-08    -7.334    -7.369    -0.035     (0)  
   Ferric(OH)3     2.140e-08   2.143e-08    -7.670    -7.669     0.001     (0)  
   Ferric(OH)4-    8.233e-11   7.598e-11   -10.084   -10.119    -0.035     (0)  
   FerricOH+2      4.583e-11   3.324e-11   -10.339   -10.478    -0.140     (0)  
   FerricH2PO4+2   3.487e-14   2.529e-14   -13.458   -13.597    -0.140     (0)  
   FerricHPO4+     6.615e-15   6.104e-15   -14.180   -14.214    -0.035     (0)  
   FerricSulfateO4+   3.484e-15   3.216e-15   -14.458   -14.493    -0.035     (0)  
   Ferric+3        2.540e-15   1.324e-15   -14.595   -14.878    -0.283     (0)  
   FerricCl+2      8.239e-17   5.975e-17   -16.084   -16.224    -0.140     (0)  
   Ferric(SulfateO4)2-   1.688e-17   1.558e-17   -16.773   -16.807    -0.035     (0)  
   FerricCl2+      4.322e-19   3.988e-19   -18.364   -18.399    -0.035     (0)  
   Ferric2(OH)2+4   1.075e-19   2.973e-20   -18.969   -19.527    -0.558     (0)  
   FerricHSulfateO4+2   3.054e-21   2.215e-21   -20.515   -20.655    -0.140     (0)  
   FerricCl3       5.952e-23   5.960e-23   -22.225   -22.225     0.001     (0)  
   Ferric3(OH)4+5   1.979e-24   2.658e-25   -23.703   -24.575    -0.872     (0)  
Ferrous       9.613e-08
   Ferrous+2       8.289e-08   6.090e-08    -7.081    -7.215    -0.134     (0)  
   FerrousHPO4     4.147e-09   4.153e-09    -8.382    -8.382     0.001     (0)  
   FerrousHCO3+    3.666e-09   3.383e-09    -8.436    -8.471    -0.035     (0)  
   FerrousSulfateO4   2.396e-09   2.399e-09    -8.621    -8.620     0.001     (0)  
   FerrousH2PO4+   2.347e-09   2.166e-09    -8.630    -8.664    -0.035     (0)  
   Ferrous(HSulfide)2   3.152e-10   3.156e-10    -9.501    -9.501     0.001     (0)  
   FerrousCO3      1.478e-10   1.480e-10    -9.830    -9.830     0.001     (0)  
   FerrousCl+      1.361e-10   1.256e-10    -9.866    -9.901    -0.035     (0)  
   FerrousOH+      8.113e-11   7.487e-11   -10.091   -10.126    -0.035     (0)  
   Ferrous(HSulfide)3-   8.979e-14   8.286e-14   -13.047   -13.082    -0.035     (0)  
   FerrousHSulfateO4+   4.394e-15   4.055e-15   -14.357   -14.392    -0.035     (0)  
Glutamine     3.001e-05
   Glutamine-2     3.001e-05   2.177e-05    -4.523    -4.662    -0.140     (0)  
   H2(Glutamine)   1.940e-09   1.942e-09    -8.712    -8.712     0.001     (0)  
   H(Glutamine)-   8.972e-10   8.280e-10    -9.047    -9.082    -0.035     (0)  
Glycine       3.060e-05
   Glycine-        3.059e-05   2.823e-05    -4.514    -4.549    -0.035     (0)  
   H2(Glycine)+    8.056e-09   7.434e-09    -8.094    -8.129    -0.035     (0)  
   H(Glycine)      1.586e-09   1.588e-09    -8.800    -8.799     0.001     (0)  
H(0)          1.509e-03
   H2              7.543e-04   7.553e-04    -3.122    -3.122     0.001     (0)  
K             6.742e-05
   K+              6.731e-05   6.206e-05    -4.172    -4.207    -0.035     (0)  
   KSulfateO4-     1.047e-07   9.658e-08    -6.980    -7.015    -0.035     (0)  
   KHPO4-          2.246e-09   2.073e-09    -8.649    -8.683    -0.035     (0)  
   KOH             8.355e-13   8.365e-13   -12.078   -12.078     0.001     (0)  
Methane       5.367e-07
   MethaneH4       5.367e-07   5.374e-07    -6.270    -6.270     0.001     (0)  
Mg            4.967e-04
   Mg+2            4.710e-04   3.458e-04    -3.327    -3.461    -0.134     (0)  
   MgSulfateO4     1.793e-05   1.795e-05    -4.746    -4.746     0.001     (0)  
   MgHPO4          4.385e-06   4.390e-06    -5.358    -5.357     0.001     (0)  
   MgHCO3+         2.435e-06   2.247e-06    -5.613    -5.648    -0.035     (0)  
   MgH2PO4+        8.662e-07   7.994e-07    -6.062    -6.097    -0.035     (0)  
   MgPO4-          4.366e-08   4.029e-08    -7.360    -7.395    -0.035     (0)  
   MgCO3           3.337e-08   3.342e-08    -7.477    -7.476     0.001     (0)  
   MgOH+           5.289e-09   4.881e-09    -8.277    -8.312    -0.035     (0)  
Na            3.373e-04
   Na+             3.369e-04   3.111e-04    -3.473    -3.507    -0.035     (0)  
   NaSulfateO4-    3.742e-07   3.453e-07    -6.427    -6.462    -0.035     (0)  
   NaHCO3          9.704e-08   9.717e-08    -7.013    -7.012     0.001     (0)  
   NaHPO4-         1.126e-08   1.039e-08    -7.949    -7.983    -0.035     (0)  
   NaCO3-          6.358e-10   5.867e-10    -9.197    -9.232    -0.035     (0)  
   NaOH            7.980e-12   7.991e-12   -11.098   -11.097     0.001     (0)  
Nitrate       3.506e-04
   NitrateO3-      3.506e-04   3.235e-04    -3.455    -3.490    -0.035     (0)  
O(0)          0.000e+00
   O2              0.000e+00   0.000e+00   -86.137   -86.136     0.001     (0)  
Ozero         3.276e-08
   Ozero2          1.638e-08   1.640e-08    -7.786    -7.785     0.001     (0)  
P             1.150e-04
   H2PO4-          7.683e-05   7.095e-05    -4.114    -4.149    -0.035     (0)  
   HPO4-2          2.364e-05   1.713e-05    -4.626    -4.766    -0.140     (0)  
   CaHPO4          7.515e-06   7.525e-06    -5.124    -5.124     0.001     (0)  
   MgHPO4          4.385e-06   4.390e-06    -5.358    -5.357     0.001     (0)  
   CaH2PO4+        1.576e-06   1.455e-06    -5.802    -5.837    -0.035     (0)  
   MgH2PO4+        8.662e-07   7.994e-07    -6.062    -6.097    -0.035     (0)  
   CaPO4-          7.501e-08   6.922e-08    -7.125    -7.160    -0.035     (0)  
   MgPO4-          4.366e-08   4.029e-08    -7.360    -7.395    -0.035     (0)  
   NaHPO4-         1.126e-08   1.039e-08    -7.949    -7.983    -0.035     (0)  
   FerrousHPO4     4.147e-09   4.153e-09    -8.382    -8.382     0.001     (0)  
   FerrousH2PO4+   2.347e-09   2.166e-09    -8.630    -8.664    -0.035     (0)  
   KHPO4-          2.246e-09   2.073e-09    -8.649    -8.683    -0.035     (0)  
   PO4-3           6.198e-11   3.002e-11   -10.208   -10.523    -0.315     (0)  
   FerricH2PO4+2   3.487e-14   2.529e-14   -13.458   -13.597    -0.140     (0)  
   FerricHPO4+     6.615e-15   6.104e-15   -14.180   -14.214    -0.035     (0)  
Sulfate       3.577e-04
   SulfateO4-2     3.037e-04   2.215e-04    -3.518    -3.655    -0.137     (0)  
   CaSulfateO4     3.536e-05   3.541e-05    -4.451    -4.451     0.001     (0)  
   MgSulfateO4     1.793e-05   1.795e-05    -4.746    -4.746     0.001     (0)  
   NaSulfateO4-    3.742e-07   3.453e-07    -6.427    -6.462    -0.035     (0)  
   AmmH4SulfateO4-   2.515e-07   2.321e-07    -6.599    -6.634    -0.035     (0)  
   KSulfateO4-     1.047e-07   9.658e-08    -6.980    -7.015    -0.035     (0)  
   HSulfateO4-     6.002e-09   5.538e-09    -8.222    -8.257    -0.035     (0)  
   FerrousSulfateO4   2.396e-09   2.399e-09    -8.621    -8.620     0.001     (0)  
   CaHSulfateO4+   5.782e-11   5.335e-11   -10.238   -10.273    -0.035     (0)  
   FerrousHSulfateO4+   4.394e-15   4.055e-15   -14.357   -14.392    -0.035     (0)  
   FerricSulfateO4+   3.484e-15   3.216e-15   -14.458   -14.493    -0.035     (0)  
   Ferric(SulfateO4)2-   1.688e-17   1.558e-17   -16.773   -16.807    -0.035     (0)  
   FerricHSulfateO4+2   3.054e-21   2.215e-21   -20.515   -20.655    -0.140     (0)  
Sulfide       8.032e-06
   H2Sulfide       5.415e-06   5.422e-06    -5.266    -5.266     0.001     (0)  
   HSulfide-       2.616e-06   2.411e-06    -5.582    -5.618    -0.035     (0)  
   Ferrous(HSulfide)2   3.152e-10   3.156e-10    -9.501    -9.501     0.001     (0)  
   Sulfide-2       1.552e-12   1.132e-12   -11.809   -11.946    -0.137     (0)  
   Ferrous(HSulfide)3-   8.979e-14   8.286e-14   -13.047   -13.082    -0.035     (0)  
Threonine     3.001e-05
   Threonine-2     3.001e-05   2.177e-05    -4.523    -4.662    -0.140     (0)  
   H2(Threonine)   1.895e-09   1.898e-09    -8.722    -8.722     0.001     (0)  
   H(Threonine)-   8.569e-10   7.907e-10    -9.067    -9.102    -0.035     (0)  
Tyrosine      3.002e-05
   Tyrosine-2      3.001e-05   2.177e-05    -4.523    -4.662    -0.140     (0)  
   H2(Tyrosine)    1.852e-09   1.855e-09    -8.732    -8.732     0.001     (0)  
   H(Tyrosine)-    9.614e-10   8.872e-10    -9.017    -9.052    -0.035     (0)  

------------------------------Saturation indices-------------------------------

  Phase               SI** log IAP   log K(298 K,   0 atm)

  FixpH            -6.59     -6.59    0.00  H+
  H2(g)             0.03     -3.12   -3.15  H2
  H2O(g)           -1.51     -0.00    1.51  H2O
  Halite           -7.91     -6.33    1.58  NaCl
  Hydroxyapatite    0.00     -3.42   -3.42  Ca5(PO4)3OH
  ORM             763.44   -115.79 -879.23  C5H4O2Amm
  redoxAnhydrite   -2.39     -6.75   -4.36  CaSulfateO4
  redoxAragonite   -1.75    -10.09   -8.34  CaCO3
  redoxCalcite     -1.61    -10.09   -8.48  CaCO3
  redoxCH4(g)      -3.41     -6.27   -2.86  MethaneH4
  redoxCO2(g)      -2.03     -3.49   -1.47  CO2
  redoxDolomite    -3.46    -20.55  -17.09  CaMg(CO3)2
  redoxFe(OH)3(a)  -0.00      4.89    4.89  Ferric(OH)3
  redoxFeS(ppt)    -2.33     -6.24   -3.92  FerrousSulfide
  redoxGoethite     5.89      4.89   -1.00  FerricOOH
  redoxGypsum      -2.17     -6.75   -4.58  CaSulfateO4:2H2O
  redoxH2S(g)      -4.27     -5.27   -1.00  H2Sulfide
  redoxHematite    13.79      9.78   -4.01  Ferric2O3
  redoxJarosite-K  -7.40    -16.61   -9.21  KFerric3(SulfateO4)2(OH)6
  redoxMackinawite  -1.60     -6.24   -4.65  FerrousSulfide
  redoxMelanterite  -8.66    -10.87   -2.21  FerrousSulfateO4:7H2O
  redoxNH3(g)      -8.51     -6.74    1.77  AmmH3
  redoxO2(g)       -4.89     -7.79   -2.89  Ozero2
  redoxPyrite       0.00    -18.48  -18.48  FerrousSulfide2
  redoxSiderite    -3.32    -14.21  -10.89  FerrousCO3
  redoxSulfur     -10.18     -5.29    4.88  Sulfide
  redoxVivianite   -6.69    -42.69  -36.00  Ferrous3(PO4)2:8H2O

**For a gas, SI = log10(fugacity). Fugacity = pressure * phi / 1 atm.
  For ideal gases, phi = 1.

Reaction step 2.

Using solution 1.	
Using exchange 1.	Exchange assemblage after simulation 3.
Using surface 1.	
Using pure phase assemblage 1.	
Using gas phase 1.	fixed volume gas phase
Using kinetics 1.	Decomposition  

Kinetics 1.	Decomposition  

	Time step: 1 seconds  (Incremented time: 2 seconds)

	Rate name       Delta Moles Total Moles   Reactant        Coefficient

	BA                6.458e-02   7.062e-01   CH2O                      0
	OAC               2.821e-02   7.408e-02   CH2O                      0
	Aero              6.574e-07   1.011e+00   CH2O                      0
	                                          HCO3                  -1.44
	                                          Ozero2                 1.44
	SulR              6.200e-05   1.000e+00   CH2O                      0
	                                          HCO3                     -9
	                                          HSulfide-              -4.5
	                                          SulfateO4-2             4.5
	Meth             -0.000e+00   1.000e+00   CH2O                      0
	                                          HCO3                  20.24
	                                          MethaneH4            -20.24
	POM              -1.405e-01   4.425e+00   CH2O                      0
	MOM               7.302e-02   1.605e+01   CH2O                      0
	DOM              -1.435e-01   6.935e-02   CH2O                      0
	QOM              -5.428e-03   1.753e+00   CH2O                      0
	EP                6.259e-04   5.316e-02   CH2O                      0
	EM                6.259e-04   5.316e-02   CH2O                      0
	respiration       1.258e-01   4.947e-01   CH2O                      0
	Tot              -1.260e-01   2.299e+01   CH2O                      0
	Salt              9.753e-04   2.960e-03   CH2O                      0
	                                          Ca+2                     -2
	                                          Cl-                     -22
	                                          HCO3                     -3
	                                          K+                       -1
	                                          Mg+2                     -4
	                                          Na+                     -25
	                                          Nitrate                  -5
	                                          Sulfate                  -4
	Caero             1.044e-05   2.589e-02   CH2O                      0
	Csulr             6.563e-04   8.120e-04   CH2O                      0
	Cmeth            -0.000e+00   0.000e+00   CH2O                      0

-----------------------------------Gas phase-----------------------------------

Total pressure:  0.01      atmospheres 
    Gas volume:   9.00e-01 liters
  Molar volume:   2.14e+03 liters/mole

                                                        Moles in gas
                                            ----------------------------------
Component                log P           P     Initial       Final       Delta

redoxCH4(g)              -3.41   3.894e-04   1.432e-05   1.433e-05   4.671e-09
redoxCO2(g)              -1.96   1.104e-02   3.471e-04   4.062e-04   5.915e-05
redoxO2(g)               -6.40   3.999e-07   4.709e-07   1.471e-08  -4.562e-07

-------------------------------Phase assemblage--------------------------------

                                                      Moles in assemblage
Phase               SI  log IAP  log K(T, P)   Initial       Final       Delta

Hydroxyapatite    0.00    -3.42     -3.42    3.786e-04   4.450e-04   6.640e-05
redoxCalcite     -1.50    -9.98     -8.48    0.000e+00           0   0.000e+00
redoxFe(OH)3(a)    0.00     4.89      4.89    2.005e+00   2.005e+00   5.402e-08
redoxFeS(ppt)    -2.17    -6.09     -3.92    0.000e+00           0   0.000e+00
redoxPyrite       0.00   -18.48    -18.48    1.402e-03   1.480e-03   7.823e-05

------------------------------Surface composition------------------------------

Diffuse Double Layer Surface-Complexation Model

H             
	 -1.698e-09  Surface + diffuse layer charge, eq
	 -6.051e-01  Surface charge, eq
	 -2.136e-02  sigma, C/m²
	 -7.428e-02  psi, V
	  2.891e+00  -F*psi/RT
	  1.802e+01  exp(-F*psi/RT)
	  3.417e+04  specific area, m²/g
	  2.734e+06  m² for   8.000e+01 g

	Water in diffuse layer: 2.734e+01 kg, 94.2% of total DDL-water.

	Total moles in diffuse layer (excluding water), Donnan calculation.
	Donnan Layer potential, psi_DL = -2.042e-02 V.
	Boltzmann factor, exp(-psi_DL * F / RT) = 2.214e+00 (= c_DL / c_free if z is +1).

	Element       	     Moles
	Alanine       	  1.3903e-04
	Amm           	  6.4197e-03
	C             	  1.8802e-02
	Ca            	  2.1991e-01
	Cl            	  3.4333e-02
	Cysteine      	  1.4014e-04
	Ferric        	  3.8173e-06
	Ferrous       	  1.4161e-05
	Glutamine     	  1.3890e-04
	Glycine       	  3.3423e-04
	H             	  1.3163e-01
	K             	  5.0192e-03
	Methane       	  1.4667e-05
	Mg            	  9.4662e-02
	Na            	  2.9539e-02
	Nitrate       	  7.6089e-03
	O             	  9.6350e-02
	Ozero         	  2.7962e-08
	P             	  1.2970e-03
	Sulfate       	  5.5440e-03
	Sulfide       	  2.8251e-04
	Threonine     	  1.3890e-04
	Tyrosine      	  1.3890e-04

H_a           
	  3.837e-02  moles
	                                   Mole                     Log
	Species               Moles    Fraction    Molality    Molality

	H_a-              3.791e-02       0.988   2.010e-02      -1.697
	H_aCa+            3.389e-04       0.009   1.797e-04      -3.745
	H_aMg+            1.163e-04       0.003   6.166e-05      -4.210
	H_aH              7.738e-06       0.000   4.103e-06      -5.387

H_ab          
	  6.378e-02  moles
	                                   Mole                     Log
	Species               Moles    Fraction    Molality    Molality

	H_ab-2            6.339e-02       0.994   3.361e-02      -1.474
	H_abCa            1.792e-04       0.003   9.501e-05      -4.022
	H_abH-            1.667e-04       0.003   8.838e-05      -4.054
	H_abMg            4.884e-05       0.001   2.590e-05      -4.587
	H_abH2            3.403e-08       0.000   1.804e-08      -7.744

H_ad          
	  6.378e-02  moles
	                                   Mole                     Log
	Species               Moles    Fraction    Molality    Molality

	H_ad-2            3.100e-02       0.486   1.643e-02      -1.784
	H_adCa            1.488e-02       0.233   7.890e-03      -2.103
	H_adH-            1.384e-02       0.217   7.340e-03      -2.134
	H_adMg            4.056e-03       0.064   2.151e-03      -2.667
	H_adH2            2.826e-06       0.000   1.498e-06      -5.824

H_af          
	  6.378e-02  moles
	                                   Mole                     Log
	Species               Moles    Fraction    Molality    Molality

	H_afH-            5.817e-02       0.912   3.084e-02      -1.511
	H_afCa            5.573e-03       0.087   2.955e-03      -2.529
	H_af-2            2.112e-05       0.000   1.120e-05      -4.951
	H_afH2            1.188e-05       0.000   6.296e-06      -5.201
	H_afMg            2.580e-06       0.000   1.368e-06      -5.864

H_ah          
	  6.378e-02  moles
	                                   Mole                     Log
	Species               Moles    Fraction    Molality    Molality

	H_ahH-            6.375e-02       1.000   3.380e-02      -1.471
	H_ahH2            1.301e-05       0.000   6.900e-06      -5.161
	H_ahCa            1.086e-05       0.000   5.759e-06      -5.240
	H_ahMg            2.827e-06       0.000   1.499e-06      -5.824
[...]
	Species               Moles    Fraction    Molality    Molality

	H_fH              1.904e-02       0.992   1.026e-02      -1.989
	H_fCa+            9.738e-05       0.005   5.249e-05      -4.280
	H_fMg+            3.467e-05       0.002   1.868e-05      -4.729
	H_f-              1.976e-05       0.001   1.065e-05      -4.973

H_g           
	  1.919e-02  moles
	                                   Mole                     Log
	Species               Moles    Fraction    Molality    Molality

	H_gH              1.906e-02       0.993   1.027e-02      -1.988
	H_gCa+            9.748e-05       0.005   5.254e-05      -4.279
	H_gMg+            3.470e-05       0.002   1.870e-05      -4.728
	H_g-              2.859e-07       0.000   1.541e-07      -6.812

H_h           
	  1.919e-02  moles
	                                   Mole                     Log
	Species               Moles    Fraction    Molality    Molality

	H_hH              1.906e-02       0.993   1.027e-02      -1.988
	H_hCa+            9.748e-05       0.005   5.254e-05      -4.279
	H_hMg+            3.470e-05       0.002   1.870e-05      -4.728
	H_h-              4.133e-09       0.000   2.227e-09      -8.652

Hfo           
	  2.490e-14  Surface + diffuse layer charge, eq
	  4.257e-05  Surface charge, eq
	  2.445e-05  sigma, C/m²
	  3.381e-05  psi, V
	 -1.316e-03  -F*psi/RT
	  9.987e-01  exp(-F*psi/RT)
	  6.000e+02  specific area, m²/g
	  1.680e+05  m² for   2.800e+02 g

	Water in diffuse layer: 1.680e+00 kg,  5.8% of total DDL-water.

	Total moles in diffuse layer (excluding water), Donnan calculation.
	Donnan Layer potential, psi_DL =  3.241e-06 V.
	Boltzmann factor, exp(-psi_DL * F / RT) = 9.999e-01 (= c_DL / c_free if z is +1).

	Element       	     Moles
	Alanine       	  1.5350e-05
	Amm           	  5.2726e-04
	C             	  2.1835e-02
	Ca            	  3.3393e-02
	Cl            	  8.3590e-02
	Cysteine      	  1.5383e-05
	Ferric        	  2.2093e-07
	Ferrous       	  4.8584e-08
	Glutamine     	  1.5346e-05
	Glycine       	  2.6105e-05
	H             	  2.3703e-01
	K             	  1.1122e-03
	Methane       	  7.4913e-04
	Mg            	  1.5511e-02
	Na            	  2.6574e-02
	Nitrate       	  1.8982e-02
	O             	  1.3049e-01
	Ozero         	  2.3098e-11
	P             	  4.3112e-05
	Sulfate       	  4.3687e-03
	Sulfide       	  9.8995e-03
	Threonine     	  1.5346e-05
	Tyrosine      	  1.5346e-05

Hfo_s         
	  5.000e-06  moles
	                                   Mole                     Log
	Species               Moles    Fraction    Molality    Molality

	Hfo_sOHCa+2       4.919e-06       0.984   2.652e-06      -5.576
	Hfo_sOH2+         7.331e-08       0.015   3.951e-08      -7.403
	Hfo_sOH           7.301e-09       0.001   3.935e-09      -8.405
	Hfo_sO-           1.666e-11       0.000   8.978e-12     -11.047
	Hfo_sOFerrous+    4.313e-14       0.000   2.325e-14     -13.634

Hfo_w         
	  2.000e-04  moles
	                                   Mole                     Log
	Species               Moles    Fraction    Molality    Molality

	Hfo_wOH2+         9.821e-05       0.491   5.294e-05      -4.276
	Hfo_wHPO4-        6.201e-05       0.310   3.342e-05      -4.476
	Hfo_wH2PO4        2.536e-05       0.127   1.367e-05      -4.864
	Hfo_wOH           9.781e-06       0.049   5.272e-06      -5.278
	Hfo_wPO4-2        2.574e-06       0.013   1.388e-06      -5.858
	Hfo_wOMg+         1.654e-06       0.008   8.916e-07      -6.050
	Hfo_wOCa+         1.937e-07       0.001   1.044e-07      -6.981
	Hfo_wSulfateO4-   1.594e-07       0.001   8.589e-08      -7.066
	Hfo_wOHSulfateO4-2   3.156e-08       0.000   1.701e-08      -7.769
	Hfo_wO-           2.232e-08       0.000   1.203e-08      -7.920
	Hfo_wOFerrous+    5.393e-13       0.000   2.907e-13     -12.537
	Hfo_wOFerrousOH   2.810e-15       0.000   1.514e-15     -14.820

-----------------------------Exchange composition------------------------------

X                1.600e+01 mol

	                               Equiv-    Equivalent      Log 
	Species             Moles      alents      Fraction     Gamma

	CaX2              4.606e+00   9.212e+00   5.758e-01     0.000
	MgX2              2.785e+00   5.569e+00   3.481e-01     0.000
	NaX               1.109e+00   1.109e+00   6.932e-02     0.000
	KX                7.192e-02   7.192e-02   4.495e-03     0.000
	AmmH4X            3.714e-02   3.714e-02   2.321e-03     0.000
	HX                5.626e-04   5.626e-04   3.516e-05    -0.083
	FerrousX2         4.740e-08   9.480e-08   5.925e-09    -0.398

-----------------------------Solution composition------------------------------

	Elements           Molality       Moles

	Alanine           9.134e-06   1.695e-05
	Amm               3.139e-04   5.823e-04
	C                 1.300e-02   2.411e-02
	Ca                1.988e-02   3.689e-02
	Cl                4.975e-02   9.230e-02
	Cysteine          9.154e-06   1.698e-05
	Ferric            1.315e-07   2.440e-07
	Ferrous           2.892e-08   5.365e-08
	Glutamine         9.132e-06   1.694e-05
	Glycine           1.554e-05   2.882e-05
	K                 6.621e-04   1.228e-03
	Methane           4.459e-04   8.273e-04
	Mg                9.235e-03   1.713e-02
	Na                1.582e-02   2.935e-02
	Nitrate           1.130e-02   2.096e-02
	Ozero             1.375e-11   2.551e-11
	P                 2.566e-05   4.761e-05
	Sulfate           2.600e-03   4.824e-03
	Sulfide           5.892e-03   1.093e-02
	Threonine         9.132e-06   1.694e-05
	Tyrosine          9.132e-06   1.694e-05

----------------------------Description of solution----------------------------

                                       pH  =   6.288      Charge balance
                                       pe  =  -7.257      Adjusted to redox equilibrium
      Specific Conductance (µS/cm,  25°C)  = 7187
                        Activity of water  =   0.997
                 Ionic strength (mol/kgw)  =   1.003e-01
                       Mass of water (kg)  =   1.855e+00
                 Total alkalinity (eq/kg)  =   8.711e-03
                       Total CO2 (mol/kg)  =   1.300e-02
                         Temperature (°C)  =  25.00
                           Pressure (atm)  =  0.50
                  Electrical balance (eq)  =  -5.285e-08
 Percent error, 100*(Cat-|An|)/(Cat+|An|)  =  -0.00
                               Iterations  = 162
                                  Total H  = 2.062206e+02
                                  Total O  = 1.031235e+02

----------------------------Distribution of species----------------------------

                                               Log       Log       Log    mole V
   Species          Molality    Activity  Molality  Activity     Gamma   cm³/mol

   H+              6.248e-07   5.156e-07    -6.204    -6.288    -0.083      0.00
   OH-             2.542e-08   1.935e-08    -7.595    -7.713    -0.118     (0)  
   H2O             5.551e+01   9.968e-01     1.744    -0.001     0.000     18.07
Alanine       9.134e-06
   Alanine-2       9.127e-06   3.396e-06    -5.040    -5.469    -0.429     (0)  
   H2(Alanine)     6.542e-09   6.694e-09    -8.184    -8.174     0.010     (0)  
   H(Alanine)-     5.020e-10   3.921e-10    -9.299    -9.407    -0.107     (0)  
Amm           3.139e-04
   AmmH4+          3.116e-04   2.320e-04    -3.506    -3.635    -0.128     (0)  
   AmmH4SulfateO4-   1.997e-06   1.560e-06    -5.700    -5.807    -0.107     (0)  
   AmmH3           2.505e-07   2.564e-07    -6.601    -6.591     0.010     (0)  
C(4)          1.300e-02
   HCO3-           6.384e-03   5.031e-03    -2.195    -2.298    -0.103     (0)  
   CO2             5.718e-03   5.852e-03    -2.243    -2.233     0.010     (0)  
   CaHCO3+         5.897e-04   4.647e-04    -3.229    -3.333    -0.103     (0)  
   MgHCO3+         2.620e-04   2.047e-04    -3.582    -3.689    -0.107     (0)  
   NaHCO3          3.406e-05   3.485e-05    -4.468    -4.458     0.010     (0)  
   CaCO3           5.438e-06   5.565e-06    -5.265    -5.255     0.010     (0)  
   MgCO3           1.483e-06   1.518e-06    -5.829    -5.819     0.010     (0)  
   CO3-2           1.186e-06   4.576e-07    -5.926    -6.340    -0.414     (0)  
   NaCO3-          1.344e-07   1.050e-07    -6.872    -6.979    -0.107     (0)  
   FerrousHCO3+    1.751e-11   1.368e-11   -10.757   -10.864    -0.107     (0)  
   FerrousCO3      2.916e-13   2.984e-13   -12.535   -12.525     0.010     (0)  
Ca            1.988e-02
   Ca+2            1.854e-02   7.239e-03    -1.732    -2.140    -0.408     (0)  
   CaSulfateO4     7.368e-04   7.540e-04    -3.133    -3.123     0.010     (0)  
   CaHCO3+         5.897e-04   4.647e-04    -3.229    -3.333    -0.103     (0)  
   CaCO3           5.438e-06   5.565e-06    -5.265    -5.255     0.010     (0)  
   CaHPO4          4.290e-06   4.390e-06    -5.368    -5.358     0.010     (0)  
   CaH2PO4+        2.178e-06   1.701e-06    -5.662    -5.769    -0.107     (0)  
   CaPO4-          2.579e-08   2.014e-08    -7.589    -7.696    -0.107     (0)  
   CaOH+           2.974e-09   2.323e-09    -8.527    -8.634    -0.107     (0)  
   CaHSulfateO4+   2.916e-09   2.278e-09    -8.535    -8.643    -0.107     (0)  
Cl            4.975e-02
   Cl-             4.975e-02   3.801e-02    -1.303    -1.420    -0.117     (0)  
   FerrousCl+      1.826e-12   1.426e-12   -11.738   -11.846    -0.107     (0)  
   FerricCl+2      3.322e-14   1.236e-14   -13.479   -13.908    -0.429     (0)  
   FerricCl2+      2.687e-15   2.099e-15   -14.571   -14.678    -0.107     (0)  
   FerricCl3       7.795e-18   7.977e-18   -17.108   -17.098     0.010     (0)  
Cysteine      9.154e-06
   Cysteine-2      9.101e-06   3.387e-06    -5.041    -5.470    -0.429     (0)  
   H2(Cysteine)    5.302e-08   5.426e-08    -7.276    -7.266     0.010     (0)  
   H(Cysteine)-    1.147e-10   8.956e-11    -9.941   -10.048    -0.107     (0)  
Ferric        1.315e-07
   Ferric(OH)2+    1.102e-07   8.605e-08    -6.958    -7.065    -0.107     (0)  
   Ferric(OH)3     2.094e-08   2.143e-08    -7.679    -7.669     0.010     (0)  
   FerricOH+2      3.612e-10   1.344e-10    -9.442    -9.872    -0.429     (0)  
   Ferric(OH)4-    4.837e-11   3.778e-11   -10.315   -10.423    -0.107     (0)  
   FerricSulfateO4+   7.892e-14   6.164e-14   -13.103   -13.210    -0.107     (0)  
   FerricH2PO4+2   7.156e-14   2.663e-14   -13.145   -13.575    -0.429     (0)  
   Ferric+3        6.068e-14   1.077e-14   -13.217   -13.968    -0.751     (0)  
   FerricCl+2      3.322e-14   1.236e-14   -13.479   -13.908    -0.429     (0)  
   FerricHPO4+     4.105e-15   3.206e-15   -14.387   -14.494    -0.107     (0)  
   FerricCl2+      2.687e-15   2.099e-15   -14.571   -14.678    -0.107     (0)  
   Ferric(SulfateO4)2-   9.013e-16   7.040e-16   -15.045   -15.152    -0.107     (0)  
   Ferric2(OH)2+4   2.537e-17   4.863e-19   -16.596   -18.313    -1.717     (0)  
   FerricCl3       7.795e-18   7.977e-18   -17.108   -17.098     0.010     (0)  
   FerricHSulfateO4+2   2.287e-19   8.511e-20   -18.641   -19.070    -0.429     (0)  
   Ferric3(OH)4+5   4.217e-21   8.743e-24   -20.375   -23.058    -2.683     (0)  
Ferrous       2.892e-08
   Ferrous(HSulfide)2   2.513e-08   2.572e-08    -7.600    -7.590     0.010     (0)  
   Ferrous(HSulfide)3-   3.695e-09   2.886e-09    -8.432    -8.540    -0.107     (0)  
   Ferrous+2       6.795e-11   2.719e-11   -10.168   -10.566    -0.398     (0)  
   FerrousHCO3+    1.751e-11   1.368e-11   -10.757   -10.864    -0.107     (0)  
   FerrousSulfateO4   2.466e-12   2.524e-12   -11.608   -11.598     0.010     (0)  
   FerrousCl+      1.826e-12   1.426e-12   -11.738   -11.846    -0.107     (0)  
   FerrousCO3      2.916e-13   2.984e-13   -12.535   -12.525     0.010     (0)  
   FerrousH2PO4+   1.603e-13   1.252e-13   -12.795   -12.903    -0.107     (0)  
   FerrousHPO4     1.170e-13   1.197e-13   -12.932   -12.922     0.010     (0)  
   FerrousOH+      2.128e-14   1.662e-14   -13.672   -13.779    -0.107     (0)  
   FerrousHSulfateO4+   1.095e-17   8.554e-18   -16.961   -17.068    -0.107     (0)  
Glutamine     9.132e-06
   Glutamine-2     9.131e-06   3.398e-06    -5.040    -5.469    -0.429     (0)  
   H2(Glutamine)   1.191e-09   1.219e-09    -8.924    -8.914     0.010     (0)  
   H(Glutamine)-   3.318e-10   2.591e-10    -9.479    -9.586    -0.107     (0)  
Glycine       1.554e-05
   Glycine-        1.552e-05   1.212e-05    -4.809    -4.916    -0.107     (0)  
   H2(Glycine)+    1.643e-08   1.283e-08    -7.784    -7.892    -0.107     (0)  
   H(Glycine)      1.336e-09   1.367e-09    -8.874    -8.864     0.010     (0)  
H(0)          1.203e-01
   H2              6.015e-02   6.156e-02    -1.221    -1.211     0.010     (0)  
K             6.621e-04
   K+              6.597e-04   5.040e-04    -3.181    -3.298    -0.117     (0)  
   KSulfateO4-     2.367e-06   1.849e-06    -5.626    -5.733    -0.107     (0)  
   KHPO4-          1.392e-09   1.087e-09    -8.856    -8.964    -0.107     (0)  
   KOH             3.301e-12   3.379e-12   -11.481   -11.471     0.010     (0)  
Methane       4.459e-04
   MethaneH4       4.459e-04   4.563e-04    -3.351    -3.341     0.010     (0)  
Mg            9.235e-03
   Mg+2            8.551e-03   3.476e-03    -2.068    -2.459    -0.391     (0)  
   MgSulfateO4     4.157e-04   4.254e-04    -3.381    -3.371     0.010     (0)  
   MgHCO3+         2.620e-04   2.047e-04    -3.582    -3.689    -0.107     (0)  
   MgHPO4          2.785e-06   2.850e-06    -5.555    -5.545     0.010     (0)  
   MgCO3           1.483e-06   1.518e-06    -5.829    -5.819     0.010     (0)  
   MgH2PO4+        1.332e-06   1.040e-06    -5.875    -5.983    -0.107     (0)  
   MgOH+           3.124e-08   2.440e-08    -7.505    -7.613    -0.107     (0)  
   MgPO4-          1.671e-08   1.305e-08    -7.777    -7.884    -0.107     (0)  
Na            1.582e-02
   Na+             1.574e-02   1.232e-02    -1.803    -1.909    -0.107     (0)  
   NaSulfateO4-    4.127e-05   3.223e-05    -4.384    -4.492    -0.107     (0)  
   NaHCO3          3.406e-05   3.485e-05    -4.468    -4.458     0.010     (0)  
   NaCO3-          1.344e-07   1.050e-07    -6.872    -6.979    -0.107     (0)  
   NaHPO4-         3.402e-08   2.657e-08    -7.468    -7.576    -0.107     (0)  
   NaOH            1.538e-10   1.573e-10    -9.813    -9.803     0.010     (0)  
Nitrate       1.130e-02
   NitrateO3-      1.130e-02   8.824e-03    -1.947    -2.054    -0.107     (0)  
O(0)          0.000e+00
   O2              0.000e+00   0.000e+00   -89.971   -89.961     0.010     (0)  
Ozero         1.375e-11
   Ozero2          6.875e-12   7.035e-12   -11.163   -11.153     0.010     (0)  
P             2.566e-05
   H2PO4-          1.183e-05   9.186e-06    -4.927    -5.037    -0.110     (0)  
   CaHPO4          4.290e-06   4.390e-06    -5.368    -5.358     0.010     (0)  
   HPO4-2          3.163e-06   1.106e-06    -5.500    -5.956    -0.456     (0)  
   MgHPO4          2.785e-06   2.850e-06    -5.555    -5.545     0.010     (0)  
   CaH2PO4+        2.178e-06   1.701e-06    -5.662    -5.769    -0.107     (0)  
   MgH2PO4+        1.332e-06   1.040e-06    -5.875    -5.983    -0.107     (0)  
   NaHPO4-         3.402e-08   2.657e-08    -7.468    -7.576    -0.107     (0)  
   CaPO4-          2.579e-08   2.014e-08    -7.589    -7.696    -0.107     (0)  
   MgPO4-          1.671e-08   1.305e-08    -7.777    -7.884    -0.107     (0)  
   KHPO4-          1.392e-09   1.087e-09    -8.856    -8.964    -0.107     (0)  
   PO4-3           1.028e-11   9.670e-13   -10.988   -12.015    -1.027     (0)  
   FerrousH2PO4+   1.603e-13   1.252e-13   -12.795   -12.903    -0.107     (0)  
   FerrousHPO4     1.170e-13   1.197e-13   -12.932   -12.922     0.010     (0)  
   FerricH2PO4+2   7.156e-14   2.663e-14   -13.145   -13.575    -0.429     (0)  
   FerricHPO4+     4.105e-15   3.206e-15   -14.387   -14.494    -0.107     (0)  
Sulfate       2.600e-03
   SulfateO4-2     1.402e-03   5.220e-04    -2.853    -3.282    -0.429     (0)  
   CaSulfateO4     7.368e-04   7.540e-04    -3.133    -3.123     0.010     (0)  
   MgSulfateO4     4.157e-04   4.254e-04    -3.381    -3.371     0.010     (0)  
   NaSulfateO4-    4.127e-05   3.223e-05    -4.384    -4.492    -0.107     (0)  
   KSulfateO4-     2.367e-06   1.849e-06    -5.626    -5.733    -0.107     (0)  
   AmmH4SulfateO4-   1.997e-06   1.560e-06    -5.700    -5.807    -0.107     (0)  
   HSulfateO4-     3.351e-08   2.617e-08    -7.475    -7.582    -0.107     (0)  
   CaHSulfateO4+   2.916e-09   2.278e-09    -8.535    -8.643    -0.107     (0)  
   FerrousSulfateO4   2.466e-12   2.524e-12   -11.608   -11.598     0.010     (0)  
   FerricSulfateO4+   7.892e-14   6.164e-14   -13.103   -13.210    -0.107     (0)  
   Ferric(SulfateO4)2-   9.013e-16   7.040e-16   -15.045   -15.152    -0.107     (0)  
   FerrousHSulfateO4+   1.095e-17   8.554e-18   -16.961   -17.068    -0.107     (0)  
   FerricHSulfateO4+2   2.287e-19   8.511e-20   -18.641   -19.070    -0.429     (0)  
Sulfide       5.892e-03
   H2Sulfide       4.539e-03   4.645e-03    -2.343    -2.333     0.010     (0)  
   HSulfide-       1.353e-03   1.030e-03    -2.869    -2.987    -0.118     (0)  
   Ferrous(HSulfide)2   2.513e-08   2.572e-08    -7.600    -7.590     0.010     (0)  
   Ferrous(HSulfide)3-   3.695e-09   2.886e-09    -8.432    -8.540    -0.107     (0)  
   Sulfide-2       6.422e-10   2.413e-10    -9.192    -9.617    -0.425     (0)  
Threonine     9.132e-06
   Threonine-2     9.131e-06   3.398e-06    -5.040    -5.469    -0.429     (0)  
   H2(Threonine)   1.164e-09   1.191e-09    -8.934    -8.924     0.010     (0)  
   H(Threonine)-   3.168e-10   2.475e-10    -9.499    -9.606    -0.107     (0)  
Tyrosine      9.132e-06
   Tyrosine-2      9.131e-06   3.398e-06    -5.040    -5.469    -0.429     (0)  
   H2(Tyrosine)    1.137e-09   1.164e-09    -8.944    -8.934     0.010     (0)  
   H(Tyrosine)-    3.555e-10   2.777e-10    -9.449    -9.556    -0.107     (0)  

------------------------------Saturation indices-------------------------------

  Phase               SI** log IAP   log K(298 K,   1 atm)

  FixpH            -6.29     -6.29    0.00  H+
  H2(g)             1.94     -1.21   -3.15  H2
  H2O(g)           -1.51     -0.00    1.51  H2O
  Halite           -4.91     -3.33    1.58  NaCl
  Hydroxyapatite    0.00     -3.42   -3.42  Ca5(PO4)3OH
  ORM             741.14   -138.09 -879.23  C5H4O2Amm
  redoxAnhydrite   -1.06     -5.42   -4.36  CaSulfateO4
  redoxAragonite   -0.14     -8.48   -8.34  CaCO3
  redoxCalcite      0.00     -8.48   -8.48  CaCO3
  redoxCH4(g)      -0.48     -3.34   -2.86  MethaneH4
  redoxCO2(g)      -0.76     -2.23   -1.47  CO2
  redoxDolomite    -0.19    -17.28  -17.09  CaMg(CO3)2
  redoxFe(OH)3(a)  -0.00      4.89    4.89  Ferric(OH)3
  redoxFeS(ppt)    -3.35     -7.27   -3.92  FerrousSulfide
  redoxGoethite     5.89      4.89   -1.00  FerricOOH
  redoxGypsum      -0.84     -5.43   -4.58  CaSulfateO4:2H2O
  redoxH2S(g)      -1.34     -2.33   -1.00  H2Sulfide
  redoxHematite    13.79      9.79   -4.01  Ferric2O3
  redoxJarosite-K  -4.84    -14.05   -9.21  KFerric3(SulfateO4)2(OH)6
  redoxMackinawite  -2.62     -7.27   -4.65  FerrousSulfide
  redoxMelanterite -11.65    -13.86   -2.21  FerrousSulfateO4:7H2O
  redoxNH3(g)      -8.36     -6.59    1.77  AmmH3
  redoxO2(g)       -8.26    -11.15   -2.89  Ozero2
  redoxPyrite       0.00    -18.48  -18.48  FerrousSulfide2
  redoxSiderite    -6.02    -16.91  -10.89  FerrousCO3
  redoxSulfur      -9.15     -4.27    4.88  Sulfide
  redoxVivianite  -19.74    -55.74  -36.00  Ferrous3(PO4)2:8H2O

**For a gas, SI = log10(fugacity). Fugacity = pressure * phi / 1 atm.
  For ideal gases, phi = 1.

------------------
End of simulation.
------------------

------------------------------------
Reading input data for simulation 4.
------------------------------------

---------------------------------
End of Run after 98.5183 Seconds.
---------------------------------

