   Input file: closed_redox_sw1.phrq
  Output file: closed_redox_sw1.phrq.out
Database file: ../database/redox.dat

------------------
Reading data base.
------------------

	SOLUTION_MASTER_SPECIES
	SOLUTION_SPECIES
	PHASES
	EXCHANGE_MASTER_SPECIES
	EXCHANGE_SPECIES
	SURFACE_MASTER_SPECIES
	SURFACE_SPECIES
	RATES
	END
------------------------------------
Reading input data for simulation 1.
------------------------------------

	DATABASE ../database/redox.dat
	TITLE  MEND and redox coupling
	CALCULATE_VALUES
	SC_T25
	 start
	 10 sc25 = SC/(1+0.021*(temperature-25))   #in us/cm
	 20 SAVE sc25
	 end
	fsl1    ##more sensitive (green)
	 start
	 10 fsl1 = 1 / (1.0 + exp(1.68 * (log10(CALC_VALUE("SC_T25")/1000)+0.26))) #log(ds/m)
	 40 SAVE fsl1
	 end
	fsl2     ##medium (purple)
	 start
	 10 fsl2 = 1 / (1.0 + exp(2.28 * (log10(CALC_VALUE("SC_T25")/1000)-0.60)))  #log(ds/m)
	 40 SAVE fsl2
	 end
	fsl3     ##medium (red)
	 start
	 10 fsl3 = 1 / (1.0 + exp(2.23 * (log10(CALC_VALUE("SC_T25")/1000)-1.11)))  #log(ds/m)
	 40 SAVE fsl3
	 end
	fsl4    ##more resistant (black)
	 start
	 10 fsl4 = 1 / (1.0 + exp(4.03 * (log10(CALC_VALUE("SC_T25")/1000)-1.78)))  #log(ds/m)
	 40 SAVE fsl4
	 end
	SOLUTION 1    
	units umol/L        #3.774L total volume  ##based on clay fresh system
	pH    7  charge
	temperature 	 25
	water         1.887   #default is 1 kg
	P           5
	Amm         38
	Na          114
	Ca          183
	Cl          133 
	Sulfate     4 
	K           28
	Mg          79
	C(4)        9  
	Nitrate        0
	Ferric       50
	Alanine      52
	Cysteine     52
	Glycine      52
	Glutamine    52
	Threonine    52
	Tyrosine     52
	Ozero        600    redoxO2(g) -0.7
	Methane      1
	Sulfide      0.1
	  SAVE SOLUTION 1
	END
-----
TITLE
-----

  MEND and redox coupling

-------------------------------------------
Beginning of initial solution calculations.
-------------------------------------------

Initial solution 1.	

-----------------------------Solution composition------------------------------

	Elements           Molality       Moles

	Alanine           5.200e-05   9.813e-05
	Amm               3.800e-05   7.171e-05
	C(4)              9.001e-06   1.698e-05
	Ca                1.830e-04   3.453e-04
	Cl                1.330e-04   2.510e-04
	Cysteine          5.200e-05   9.813e-05
	Ferric            5.000e-05   9.436e-05
	Glutamine         5.200e-05   9.813e-05
	Glycine           5.200e-05   9.813e-05
	K                 2.800e-05   5.284e-05
	Methane           1.000e-06   1.887e-06
	Mg                7.901e-05   1.491e-04
	Na                1.140e-04   2.151e-04
	Ozero             5.111e-04   9.645e-04  Equilibrium with redoxO2(g)
	P                 5.000e-06   9.436e-06
	Sulfate           4.000e-06   7.549e-06
	Sulfide           1.000e-07   1.887e-07
	Threonine         5.200e-05   9.813e-05
	Tyrosine          5.200e-05   9.813e-05

----------------------------Description of solution----------------------------

                                       pH  =   6.951      Charge balance
                                       pe  =   4.000    
      Specific Conductance (µS/cm,  25°C)  = 49
                        Activity of water  =   1.000
                 Ionic strength (mol/kgw)  =   1.254e-03
                       Mass of water (kg)  =   1.887e+00
                 Total alkalinity (eq/kg)  =   3.480e-04
                       Total CO2 (mol/kg)  =   9.001e-06
                         Temperature (°C)  =  25.00
                  Electrical balance (eq)  =   1.862e-17
 Percent error, 100*(Cat-|An|)/(Cat+|An|)  =   0.00
                               Iterations  =   8
                                  Total H  = 2.094810e+02
                                  Total O  = 1.047406e+02

----------------------------Distribution of species----------------------------

                                               Log       Log       Log    mole V
   Species          Molality    Activity  Molality  Activity     Gamma   cm³/mol

   H+              1.163e-07   1.120e-07    -6.935    -6.951    -0.016      0.00
   OH-             9.305e-08   8.941e-08    -7.031    -7.049    -0.017     (0)  
   H2O             5.551e+01   1.000e+00     1.744    -0.000     0.000     18.07
Alanine       5.200e-05
   Alanine-2       5.200e-05   4.436e-05    -4.284    -4.353    -0.069     (0)  
   H2(Alanine)     4.121e-09   4.123e-09    -8.385    -8.385     0.000     (0)  
   H(Alanine)-     1.157e-09   1.112e-09    -8.937    -8.954    -0.017     (0)  
Amm           3.800e-05
   AmmH4+          3.782e-05   3.632e-05    -4.422    -4.440    -0.018     (0)  
   AmmH3           1.848e-07   1.848e-07    -6.733    -6.733     0.000     (0)  
   AmmH4SulfateO4-   1.598e-09   1.536e-09    -8.796    -8.814    -0.017     (0)  
C(4)          9.001e-06
   HCO3-           7.227e-06   6.949e-06    -5.141    -5.158    -0.017     (0)  
   CO2             1.749e-06   1.750e-06    -5.757    -5.757     0.000     (0)  
   CaHCO3+         1.441e-08   1.385e-08    -7.841    -7.858    -0.017     (0)  
   MgHCO3+         5.710e-09   5.487e-09    -8.243    -8.261    -0.017     (0)  
   CO3-2           3.404e-09   2.911e-09    -8.468    -8.536    -0.068     (0)  
   CaCO3           7.637e-10   7.639e-10    -9.117    -9.117     0.000     (0)  
   NaHCO3          4.281e-10   4.283e-10    -9.368    -9.368     0.000     (0)  
   MgCO3           1.874e-10   1.874e-10    -9.727    -9.727     0.000     (0)  
   NaCO3-          6.180e-12   5.940e-12   -11.209   -11.226    -0.017     (0)  
Ca            1.830e-04
   Ca+2            1.827e-04   1.562e-04    -3.738    -3.806    -0.068     (0)  
   CaHPO4          1.339e-07   1.339e-07    -6.873    -6.873     0.000     (0)  
   CaSulfateO4     1.023e-07   1.023e-07    -6.990    -6.990     0.000     (0)  
   CaHCO3+         1.441e-08   1.385e-08    -7.841    -7.858    -0.017     (0)  
   CaH2PO4+        1.173e-08   1.127e-08    -7.931    -7.948    -0.017     (0)  
   CaPO4-          2.944e-09   2.829e-09    -8.531    -8.548    -0.017     (0)  
   CaCO3           7.637e-10   7.639e-10    -9.117    -9.117     0.000     (0)  
   CaOH+           2.410e-10   2.316e-10    -9.618    -9.635    -0.017     (0)  
   CaHSulfateO4+   6.984e-14   6.712e-14   -13.156   -13.173    -0.017     (0)  
Cl            1.330e-04
   Cl-             1.330e-04   1.278e-04    -3.876    -3.893    -0.017     (0)  
   FerricCl+2      6.028e-16   5.142e-16   -15.220   -15.289    -0.069     (0)  
   FerricCl2+      3.055e-19   2.936e-19   -18.515   -18.532    -0.017     (0)  
   FerricCl3       3.751e-24   3.752e-24   -23.426   -23.426     0.000     (0)  
Cysteine      5.200e-05
   Cysteine-2      5.197e-05   4.433e-05    -4.284    -4.353    -0.069     (0)  
   H2(Cysteine)    3.348e-08   3.349e-08    -7.475    -7.475     0.000     (0)  
   H(Cysteine)-    2.649e-10   2.546e-10    -9.577    -9.594    -0.017     (0)  
Ferric        5.000e-05
   Ferric(OH)3     2.613e-05   2.614e-05    -4.583    -4.583     0.000     (0)  
   Ferric(OH)2+    2.364e-05   2.272e-05    -4.626    -4.644    -0.017     (0)  
   Ferric(OH)4-    2.215e-07   2.129e-07    -6.655    -6.672    -0.017     (0)  
   FerricOH+2      9.006e-09   7.683e-09    -8.045    -8.114    -0.069     (0)  
   Ferric+3        1.870e-13   1.332e-13   -12.728   -12.875    -0.147     (0)  
   FerricH2PO4+2   1.185e-13   1.011e-13   -12.926   -12.995    -0.069     (0)  
   FerricHPO4+     5.833e-14   5.605e-14   -13.234   -13.251    -0.017     (0)  
   FerricSulfateO4+   4.990e-15   4.795e-15   -14.302   -14.319    -0.017     (0)  
   Ferric2(OH)2+4   3.000e-15   1.589e-15   -14.523   -14.799    -0.276     (0)  
   FerricCl+2      6.028e-16   5.142e-16   -15.220   -15.289    -0.069     (0)  
   Ferric3(OH)4+5   2.036e-17   7.541e-18   -16.691   -17.123    -0.431     (0)  
   Ferric(SulfateO4)2-   3.583e-19   3.444e-19   -18.446   -18.463    -0.017     (0)  
   FerricCl2+      3.055e-19   2.936e-19   -18.515   -18.532    -0.017     (0)  
   FerricHSulfateO4+2   1.685e-21   1.438e-21   -20.773   -20.842    -0.069     (0)  
   FerricCl3       3.751e-24   3.752e-24   -23.426   -23.426     0.000     (0)  
Glutamine     5.200e-05
   Glutamine-2     5.200e-05   4.436e-05    -4.284    -4.353    -0.069     (0)  
   H(Glutamine)-   7.645e-10   7.347e-10    -9.117    -9.134    -0.017     (0)  
   H2(Glutamine)   7.500e-10   7.502e-10    -9.125    -9.125     0.000     (0)  
Glycine       5.200e-05
   Glycine-        5.200e-05   4.997e-05    -4.284    -4.301    -0.017     (0)  
   H2(Glycine)+    2.595e-09   2.494e-09    -8.586    -8.603    -0.017     (0)  
   H(Glycine)      1.224e-09   1.224e-09    -8.912    -8.912     0.000     (0)  
H(0)          1.775e-25
   H2              8.873e-26   8.875e-26   -25.052   -25.052     0.000     (0)  
K             2.800e-05
   K+              2.800e-05   2.691e-05    -4.553    -4.570    -0.017     (0)  
   KSulfateO4-     6.457e-10   6.206e-10    -9.190    -9.207    -0.017     (0)  
   KHPO4-          8.533e-11   8.200e-11   -10.069   -10.086    -0.017     (0)  
   KOH             8.329e-13   8.332e-13   -12.079   -12.079     0.000     (0)  
Methane       1.000e-06
   MethaneH4       1.000e-06   1.000e-06    -6.000    -6.000     0.000     (0)  
Mg            7.901e-05
   Mg+2            7.886e-05   6.748e-05    -4.103    -4.171    -0.068     (0)  
   MgHPO4          7.818e-08   7.820e-08    -7.107    -7.107     0.000     (0)  
   MgSulfateO4     5.192e-08   5.193e-08    -7.285    -7.285     0.000     (0)  
   MgH2PO4+        6.450e-09   6.199e-09    -8.190    -8.208    -0.017     (0)  
   MgHCO3+         5.710e-09   5.487e-09    -8.243    -8.261    -0.017     (0)  
   MgOH+           2.277e-09   2.188e-09    -8.643    -8.660    -0.017     (0)  
   MgPO4-          1.715e-09   1.649e-09    -8.766    -8.783    -0.017     (0)  
   MgCO3           1.874e-10   1.874e-10    -9.727    -9.727     0.000     (0)  
Na            1.140e-04
   Na+             1.140e-04   1.096e-04    -3.943    -3.960    -0.017     (0)  
   NaSulfateO4-    1.876e-09   1.803e-09    -8.727    -8.744    -0.017     (0)  
   NaHCO3          4.281e-10   4.283e-10    -9.368    -9.368     0.000     (0)  
   NaHPO4-         3.475e-10   3.340e-10    -9.459    -9.476    -0.017     (0)  
   NaOH            6.464e-12   6.466e-12   -11.189   -11.189     0.000     (0)  
   NaCO3-          6.180e-12   5.940e-12   -11.209   -11.226    -0.017     (0)  
O(0)          0.000e+00
   O2              0.000e+00   0.000e+00   -42.277   -42.276     0.000     (0)  
Ozero         5.111e-04
   Ozero2          2.556e-04   2.556e-04    -3.592    -3.592     0.000     (0)  
P             5.000e-06
   H2PO4-          2.933e-06   2.819e-06    -5.533    -5.550    -0.017     (0)  
   HPO4-2          1.832e-06   1.563e-06    -5.737    -5.806    -0.069     (0)  
   CaHPO4          1.339e-07   1.339e-07    -6.873    -6.873     0.000     (0)  
   MgHPO4          7.818e-08   7.820e-08    -7.107    -7.107     0.000     (0)  
   CaH2PO4+        1.173e-08   1.127e-08    -7.931    -7.948    -0.017     (0)  
   MgH2PO4+        6.450e-09   6.199e-09    -8.190    -8.208    -0.017     (0)  
   CaPO4-          2.944e-09   2.829e-09    -8.531    -8.548    -0.017     (0)  
   MgPO4-          1.715e-09   1.649e-09    -8.766    -8.783    -0.017     (0)  
   NaHPO4-         3.475e-10   3.340e-10    -9.459    -9.476    -0.017     (0)  
   KHPO4-          8.533e-11   8.200e-11   -10.069   -10.086    -0.017     (0)  
   PO4-3           9.000e-12   6.294e-12   -11.046   -11.201    -0.155     (0)  
   FerricH2PO4+2   1.185e-13   1.011e-13   -12.926   -12.995    -0.069     (0)  
   FerricHPO4+     5.833e-14   5.605e-14   -13.234   -13.251    -0.017     (0)  
Sulfate       4.000e-06
   SulfateO4-2     3.842e-06   3.283e-06    -5.415    -5.484    -0.068     (0)  
   CaSulfateO4     1.023e-07   1.023e-07    -6.990    -6.990     0.000     (0)  
   MgSulfateO4     5.192e-08   5.193e-08    -7.285    -7.285     0.000     (0)  
   NaSulfateO4-    1.876e-09   1.803e-09    -8.727    -8.744    -0.017     (0)  
   AmmH4SulfateO4-   1.598e-09   1.536e-09    -8.796    -8.814    -0.017     (0)  
   KSulfateO4-     6.457e-10   6.206e-10    -9.190    -9.207    -0.017     (0)  
   HSulfateO4-     3.718e-11   3.573e-11   -10.430   -10.447    -0.017     (0)  
   CaHSulfateO4+   6.984e-14   6.712e-14   -13.156   -13.173    -0.017     (0)  
   FerricSulfateO4+   4.990e-15   4.795e-15   -14.302   -14.319    -0.017     (0)  
   Ferric(SulfateO4)2-   3.583e-19   3.444e-19   -18.446   -18.463    -0.017     (0)  
   FerricHSulfateO4+2   1.685e-21   1.438e-21   -20.773   -20.842    -0.069     (0)  
Sulfide       1.000e-07
   HSulfide-       5.154e-08   4.952e-08    -7.288    -7.305    -0.017     (0)  
   H2Sulfide       4.847e-08   4.848e-08    -7.315    -7.314     0.000     (0)  
   Sulfide-2       6.251e-14   5.342e-14   -13.204   -13.272    -0.068     (0)  
Threonine     5.200e-05
   Threonine-2     5.200e-05   4.436e-05    -4.284    -4.353    -0.069     (0)  
   H2(Threonine)   7.330e-10   7.332e-10    -9.135    -9.135     0.000     (0)  
   H(Threonine)-   7.301e-10   7.016e-10    -9.137    -9.154    -0.017     (0)  
Tyrosine      5.200e-05
   Tyrosine-2      5.200e-05   4.436e-05    -4.284    -4.353    -0.069     (0)  
   H(Tyrosine)-    8.191e-10   7.872e-10    -9.087    -9.104    -0.017     (0)  
   H2(Tyrosine)    7.163e-10   7.165e-10    -9.145    -9.145     0.000     (0)  

------------------------------Saturation indices-------------------------------

  Phase               SI** log IAP   log K(298 K,   1 atm)

  FixpH            -6.95     -6.95    0.00  H+
  H2(g)           -21.90    -25.05   -3.15  H2
  H2O(g)           -1.51     -0.00    1.51  H2O
  Halite           -9.44     -7.85    1.58  NaCl
  Hydroxyapatite   -5.22     -8.65   -3.42  Ca5(PO4)3OH
  ORM             829.47    -49.76 -879.23  C5H4O2Amm
  redoxAnhydrite   -4.93     -9.29   -4.36  CaSulfateO4
  redoxAragonite   -4.01    -12.34   -8.34  CaCO3
  redoxCalcite     -3.86    -12.34   -8.48  CaCO3
  redoxCH4(g)      -3.14     -6.00   -2.86  MethaneH4
  redoxCO2(g)      -4.29     -5.76   -1.47  CO2
  redoxDolomite    -7.96    -25.05  -17.09  CaMg(CO3)2
  redoxFe(OH)3(a)   3.09      7.98    4.89  Ferric(OH)3
  redoxGoethite     8.98      7.98   -1.00  FerricOOH
  redoxGypsum      -4.71     -9.29   -4.58  CaSulfateO4:2H2O
  redoxH2S(g)      -6.32     -7.31   -1.00  H2Sulfide
  redoxHematite    19.96     15.95   -4.01  Ferric2O3
  redoxJarosite-K  -3.25    -12.46   -9.21  KFerric3(SulfateO4)2(OH)6
  redoxNH3(g)      -8.50     -6.73    1.77  AmmH3
  redoxO2(g)       -0.70     -3.59   -2.89  Ozero2
  redoxSulfur       9.71     14.59    4.88  Sulfide

**For a gas, SI = log10(fugacity). Fugacity = pressure * phi / 1 atm.
  For ideal gases, phi = 1.

------------------
End of simulation.
------------------

------------------------------------
Reading input data for simulation 2.
------------------------------------

	GAS_PHASE 1 fixed volume gas phase
	  fixed_volume
	  volume	   0.9  #(L)  calculate air pore space
	  temperature 	 25.0
	  redoxO2(g)   0.2
	  redoxCH4(g)  0.0
	  redoxCO2(g)  0.000316
	  SAVE GAS_PHASE 1
	END
------------------
End of simulation.
------------------

------------------------------------
Reading input data for simulation 3.
------------------------------------

	USE SOLUTION 1
	USE GAS_PHASE 1
	EXCHANGE_SPECIES
	 X- = X-
	 log_k 0     #semicolon is logical end of line
	 X- + AmmH4+ = AmmH4X
	  log_k  0.25   #define the half-reactions of ion change
	 2X- + Ca+2  = CaX2
	    log_k  0.4    $logK's relative 
	 2X- + Mg+2  = MgX2
	    log_k  0.5
	 X- + Na+  = NaX
	      log_k  0.0
	 X- + K+  = KX
	       log_k  0.2
	EXCHANGE 1   #exchanger in equilibirium 
	  X         16  #exchanger amount in mol
	  equilibrate with solution 1
	  exchange_gammas   true
	EQUILIBRIUM_PHASES 1
	  redoxCalcite      0  0.001     #CaCo3
	  redoxFeS(ppt)     0  0.001     #FeS
	  Hydroxyapatite    0  0.001     #Ca5(PO4)3OH
	  redoxPyrite       0  0.001     #FeS2
	  redoxFe(OH)3(a)   0  2   
	SURFACE 1
	 Hfo_wOH 2e-4  600  280  #site density (per nm2), SSA (m2/g), gram
	 Hfo_sOH 5e-6
	donnan 1e-8   #defuse layer thickness
	  H_a   3.837E-02  3.417E+04     80  ##gram of SOM for exchange
	  H_b   3.837E-02
	 H_c   3.837E-02
	 H_d  3.837E-02
	  H_e   1.919E-02
	 H_f   1.919E-02
	 H_g  1.919E-02
	 H_h  1.919E-02
	  H_ab  6.378E-02
	 H_ad  6.378E-02
	 H_af  6.378E-02
	 H_ah  6.378E-02
	  H_bc  6.378E-02
	 H_be  6.378E-02
	 H_bg  6.378E-05
	 H_cd  6.378E-05
	  H_cf  6.378E-02
	 H_ch  6.378E-02
	 H_de  6.378E-05
	 H_dg  6.378E-05
	 equilibrate with solution 1
	USE SOLUTION 1
	KINETICS  Decomposition  ##in mgC per g soil, redox reaction stoichiometry based on per biomassC
	cvode
	BA
	   m0   0.52
	   formula CH2O 0.0  
	   parms 1.04 0.25 0.001 0.4 0.02  #parm(1)=Vd, parm(2)=Kd, parm(3)=PEP, parm(4)=CUE, parm(5)=kb
	OAC
	   m0  0.001
	   formula CH2O 0.0   
	   parms  0.2  0.25
	Aero
	   formula CH2O 0.0   Ozero2  1.44   HCO3 -1.44  #C 2.44
	   parms  4   0.02  0.02   #Vmax, Koc, Ko2
	SulR
	   formula CH2O 0.0   SulfateO4-2  4.5   HSulfide-  -4.5  HCO3 -9    #C 10
	   parms  0.4   0.3   1   #Vmax, Koc, Kso4
	Meth
	   formula CH2O 0.0     MethaneH4 -20.24  HCO3 20.24   #C 41.48
	   parms  0.25   0.6  0.1   #Vmax, Koc, KI_O2
	POM
	   m0   4.71
	   formula CH2O 0.0  
	   parms 33.8  50  0  0.5   #vp1, kp1, Ip1, gD-fraction of dead BA to D
	MOM
	   m0   15.9
	   formula CH2O 0.0
	   parms 0.2  250 0.5   #vm, km, fD- fraction of decomposed p1/p2 to D
	DOM
	   m0   0.48
	   formula CH2O 0.0
	   parms  0.5  0.25  0
	QOM
	   m0   1.767
	   formula CH2O 0.0
	   parms 0.006 0.5  0.001   #adsorption constant, Qmax, desorption constant
	EP
	   m0   0.052
	   formula CH2O 0.0
	   parms  0.001
	EM
	   m0   0.052
	   formula CH2O 0.0
	   parms  0.001
	respiration
	   m0   0
	   formula CH2O 0.0 
	   parms  0.4
	Tot
	   m0   23.484
	   formula CH2O 0.0
	Salt  ##saltwater ion stoichiometry
	   m0   0.001
	   formula  CH2O 0.0   Cl-  -28  Sulfate  -1   Na+  -25   K+  -1    Ca+2  -2  Mg+2  -4   HCO3  -3  Nitrate -5 
	   parms 0.01  ## mol per gram soil per day
	Caero
	   m0   0
	   formula CH2O 0.0
	Csulr
	   m0   0
	   formula CH2O 0.0
	Cmeth
	   m0   0
	   formula CH2O 0.0
	   steps 100 in 100 steps #day
	  INCREMENTAL_REACTIONS true
	RATES
	BA
	   start
	    10 mDOM= kin("DOM")*0.8
	    20 bio = kin("BA")
	    30 uptake= parm(1)* bio * mDOM/(parm(2)+mDOM)   #parm(1)=Vd, parm(2)=Kd
	    40 put(uptake, 1) #microbil uptake flux                                      
	    50 decay=(1-parm(3)*2)*bio*parm(5)     #parm(3)=pEP=pEM (exoemzyme production rate); 0.1*Vd=biomass decay rate
	    60 put(decay, 2)                                           ##maintenance respiration
	    70 pexo = parm(3)*bio   #exoenzyme production enzyme production rate=0.1*Vd
	    80 put(pexo, 3)                                             ##mortality
	    90 rate = get(1)*parm(4)-get(2)-get(3)-get(3)+get(11)*get(11)/(get(11)+get(12)+get(13))+get(12)*get(12)/(get(11)+get(12)+get(13))+get(13)*get(13)/(get(11)+get(12)+get(13)) #parm(4)=CUE
	    100 save -rate * time 
	   end
	OAC
	   start
	    10 mDOM= kin("DOM")
	    20 rate = parm(1)* mDOM+parm(2)* get(2)-get(11)*2.44*get(11)/(get(11)+get(12)+get(13))-get(12)*10*get(12)/(get(11)+get(12)+get(13))-get(13)*41.48*get(13)/(get(11)+get(12)+get(13))  #C stoichiometry for redox reactions
	    30 put(rate, 14)
	    100 save -rate * time 
	   end
	Aero
	  start
	   10 mDOM= kin("OAC")/12
	   20 bio = kin("BA")/12
	   30 DO= mol("Ozero2")*1000
	   40 donor = mDOM/(parm(2)+mDOM)
	   50 accp = DO/(parm(3)+DO)
	   60 rate = parm(1)* bio * donor * accp
	   70 put(rate, 11)
	   80 final = rate*get(11)/(get(11)+get(12)+get(13))
	  100 save -final* time
	  end
	SulR
	  start
	   10 mDOM= kin("OAC")/12
	   20 bio = 0.6*kin("BA")/12
	   30 DO = mol("Ozero2")*1000
	   40 SO = mol("SulfateO4-2")*1000
	   50 donor = mDOM/(parm(2)+mDOM)
	   60 acc = SO/(parm(3)+SO)
	   70 rate = parm(1)* bio * donor * acc
	   80 put(rate, 12)
	   90 final = rate*get (12)/(get(11)+get(12)+get(13))
	  100 save -final * time
	  end
	Meth
	  start
	   10 mDOM= kin("OAC")/12
	   11 if(kin("OAC")<= 0.15) then mDOM=0
	   20 bio = 0.2*kin("BA")/12
	   30 DO = mol("Ozero2")*1000
	   50 donor = mDOM/(parm(2)+mDOM)
	   60 inhib = parm(3)/(DO+parm(3))
	   70 rate =  parm(1)* bio * donor 
	   80 put(rate, 13)
	   90 final = rate*get (13)/(get(11)+get(12)+get(13))
	  100 save -final * time
	  end
	POM
	   start
	    10 mPOM = kin("POM")
	    20 ep = kin("EP")
	    30 deco = parm(1) * ep * mPOM/(parm(2)+mPOM) # parm(1)=Vp, parm(2)=Kp
	    40 put (deco, 4)  #POM decomposition
	    50 rate = (1-parm(4))*get(2)-get(4)  #parm(3)=input, parm(4)=gD, fraction of decayed biomass C going to DOM pool
	    100 save -rate * time
	   end
	MOM
	   start
	    10 mMOM = kin("MOM")
	    20 em = kin("EM")
	    30 flux = parm(1) * em * mMOM /(parm(2)+ mMOM) # parm(1)=VM, parm(2)=KM
	    40 put(flux,5)  #MOM decomposition flux
	    50 rate = (1-parm(3))*get(4)-get(5)  #parm(3)=fD_fraction of decomposed P to D
	    100 save -rate*time
	   end
	DOM
	   start
	    10 rate = (1-parm(1))*get(4)+parm(2)* get(2)+get(5)+(get(8)+get(9))-get(1)-(get(6)-get(7))-get(14)
	    100 save -rate* time
	   end
	QOM
	   start
	    10 mQOM = kin("QOM")
	    20 D = kin("DOM")
	    30 flux1 = parm(1) * (1-mQOM/parm(2))* D #adsorption flux, parm(1)=adsorption constant, parm(2)=Qmax
	    40 put(flux1,6)  #adsorption flux
	    50 flux2 = parm(3) * (mQOM/parm(2)) #parm(3)=desorption constant, parm(2)=Qmax
	    60 put(flux2,7)  #desorption flux
	    70 rate = get(6)-get(7)
	    100 save -rate * time
	   end
	EP
	   start
	    10 ep = kin("EP")
	    20 flux1 = parm(1)*ep #enzyme decay
	    30 put (flux1,8)
	    40 rate = get(3)-get(8)
	    100 save -rate * time
	   end
	EM
	   start
	    10 em = kin("EM")
	    20 flux1= parm(1)* em
	    30 put (flux1,9)
	    40 rate = get(3)-get(9)
	    100  save -rate * time
	   end
	respiration
	   start
	    10 rate = (1- parm(1))*get(1)+(get(11)*1.44*get(11)/(get(11)+get(12)+get(13))+get(12)*9*get(12)/(get(11)+get(12)+get(13))-get(13)*20.24*get(13)/(get(11)+get(12)+get(13)))*12 #parm(1)=CUE
	    20 put (rate, 10)
	    30 save -rate * time
	   end
	Tot
	   start
	    10 rate = -get(10)-(GAS('redoxCH4(g)')+tot('CH4'))*12
	    20 save -rate * time
	   end
	Salt
	   start
	    10 salt=kin("salt")
	    20 rate = parm(1)*(0.10-salt)   ## The incoming concentration is important
	    30 save -rate * time
	   end
	Caero
	   start
	    10 rate = get(11)*2.44
	    30 save -rate * time
	   end
	Csulr
	   start
	    10 rate = get(12)*10
	    30 save -rate * time
	   end
	Cmeth
	   start
	    10 rate = get(13)*41.48
	    30 save -rate * time
	   end
	SELECTED_OUTPUT
	  reset false
	  file closed_redox_sw1.txt
	USER_PUNCH
	  start
	  heading Time pH  Ozero HS CH4 CO2g CO2 SC  fsl1  fsl2  fsl3  fsl4 POM MOM QOM DOM BA EP EM IC Total OrgAcid Aero SulR Meth Caero Csulr Cmeth Na  K  Ca  Mg  PO4  Cl  SO4 NH4 HCO3 FeS Pyrite 
	  10 PUNCH SIM_TIME
	  20 PUNCH -la("H+")
	  30 PUNCH mol("Ozero2")  tot('Sulfide')
	  40 PUNCH GAS('redoxCH4(g)')+tot('CH4')  GAS('redoxCO2(g)')  tot('C(4)')
	  50 PUNCH CALC_VALUE ("SC_T25")
	  60 PUNCH CALC_VALUE("fsl1")  CALC_VALUE("fsl2")  CALC_VALUE("fsl3")  CALC_VALUE("fsl4")
	  70 PUNCH kin('POM') kin('MOM') kin('QOM') kin('DOM') kin('BA') kin('EP') kin('EM') 
	  80 PUNCH kin('respiration') kin("Tot") kin('OAC') kin('Aero')  kin('SulR')  kin('Meth')
	  90 PUNCH kin('Caero') kin('Csulr') kin('Cmeth')
	  100 PUNCH tot("Na")  tot("K")  mol("Ca+2")  tot("Mg") tot("P")  tot("Cl")  tot("Sulfate") tot ("Amm")  tot("C(4)")
	  110 PUNCH equi("redoxFeS(ppt)")  equi("redoxPyrite")
	  end
	END
-------------------------------------------------------
Beginning of initial exchange-composition calculations.
-------------------------------------------------------

Exchange 1.	

X                1.600e+01 mol

	                               Equiv-    Equivalent      Log 
	Species             Moles      alents      Fraction     Gamma

	CaX2              5.136e+00   1.027e+01   6.421e-01     0.000
	MgX2              2.793e+00   5.586e+00   3.491e-01     0.000
	NaX               7.092e-02   7.092e-02   4.433e-03     0.000
	AmmH4X            4.180e-02   4.180e-02   2.612e-03     0.000
	KX                2.760e-02   2.760e-02   1.725e-03     0.000
	HX                7.524e-04   7.524e-04   4.703e-05    -0.016

------------------------------------------------------
Beginning of initial surface-composition calculations.
------------------------------------------------------

Surface 1.	

Diffuse Double Layer Surface-Complexation Model

H             
	  1.144e-09  Surface + diffuse layer charge, eq
	 -5.139e-01  Surface charge, eq
	 -1.814e-02  sigma, C/m²
	 -1.120e-01  psi, V
	  4.360e+00  -F*psi/RT
	  7.824e+01  exp(-F*psi/RT)
	  3.417e+04  specific area, m²/g
	  2.734e+06  m² for   8.000e+01 g

	Water in diffuse layer: 2.734e+01 kg, 94.2% of total DDL-water.

	Total moles in diffuse layer (excluding water), Donnan calculation.
	Donnan Layer potential, psi_DL = -4.521e-02 V.
	Boltzmann factor, exp(-psi_DL * F / RT) = 5.811e+00 (= c_DL / c_free if z is +1).

	Element       	     Moles
	Alanine       	  4.2219e-05
	Amm           	  6.0117e-03
	C             	  8.5044e-05
	Ca            	  1.6867e-01
	Cl            	  6.2575e-04
	Cysteine      	  4.2994e-05
	Ferric        	  4.4787e-03
	Glutamine     	  4.2128e-05
	Glycine       	  2.4508e-04
	H             	  3.3920e-02
	K             	  4.4476e-03
	Methane       	  2.7338e-05
	Mg            	  7.2787e-02
	Na            	  1.8108e-02
	O             	  9.9991e-03
	Ozero         	  1.3973e-02
	P             	  2.3987e-05
	Sulfate       	  7.3458e-06
	Sulfide       	  1.5674e-06
	Threonine     	  4.2127e-05
	Tyrosine      	  4.2127e-05

H_a           
	  3.837e-02  moles
	                                   Mole                     Log
	Species               Moles    Fraction    Molality    Molality

	H_a-              3.718e-02       0.969   1.971e-02      -1.705
	H_aCa+            8.730e-04       0.023   4.626e-04      -3.335
	H_aMg+            2.995e-04       0.008   1.587e-04      -3.799
	H_aH              1.267e-05       0.000   6.716e-06      -5.173

H_ab          
	  6.378e-02  moles
	                                   Mole                     Log
	Species               Moles    Fraction    Molality    Molality

	H_ab-2            6.291e-02       0.986   3.334e-02      -1.477
	H_abCa            4.670e-04       0.007   2.475e-04      -3.606
	H_abH-            2.762e-04       0.004   1.464e-04      -3.835
	H_abMg            1.273e-04       0.002   6.745e-05      -4.171
	H_abH2            9.414e-08       0.000   4.989e-08      -7.302

H_ad          
	  6.378e-02  moles
	                                   Mole                     Log
	Species               Moles    Fraction    Molality    Molality

	H_adCa            2.400e-02       0.376   1.272e-02      -1.896
	H_ad-2            1.904e-02       0.298   1.009e-02      -1.996
	H_adH-            1.419e-02       0.223   7.522e-03      -2.124
	H_adMg            6.541e-03       0.103   3.467e-03      -2.460
	H_adH2            4.838e-06       0.000   2.564e-06      -5.591

H_af          
	  6.378e-02  moles
	                                   Mole                     Log
	Species               Moles    Fraction    Molality    Molality

	H_afH-            5.540e-02       0.869   2.936e-02      -1.532
	H_afCa            8.348e-03       0.131   4.424e-03      -2.354
	H_afH2            1.888e-05       0.000   1.001e-05      -5.000
	H_af-2            1.205e-05       0.000   6.385e-06      -5.195
	H_afMg            3.864e-06       0.000   2.048e-06      -5.689

H_ah          
	  6.378e-02  moles
	                                   Mole                     Log
	Species               Moles    Fraction    Molality    Molality

	H_ahH-            6.374e-02       0.999   3.378e-02      -1.471
	H_ahH2            2.172e-05       0.000   1.151e-05      -4.939
	H_ahCa            1.708e-05       0.000   9.052e-06      -5.043
	H_ahMg            4.446e-06       0.000   2.356e-06      -5.628
	H_ah-2            2.896e-09       0.000   1.535e-09      -8.814

H_b           
	  3.837e-02  moles
	                                   Mole                     Log
	Species               Moles    Fraction    Molality    Molality

	H_b-              2.720e-02       0.709   1.441e-02      -1.841
	H_bCa+            8.227e-03       0.214   4.360e-03      -2.361
	H_bMg+            2.823e-03       0.074   1.496e-03      -2.825
	H_bH              1.194e-04       0.003   6.329e-05      -4.199

H_bc          
	  6.378e-02  moles
	                                   Mole                     Log
	Species               Moles    Fraction    Molality    Molality

	H_bcCa            3.020e-02       0.474   1.601e-02      -1.796
	H_bc-2            2.395e-02       0.376   1.269e-02      -1.896
	H_bcMg            8.231e-03       0.129   4.362e-03      -2.360
	H_bcH-            1.386e-03       0.022   7.348e-04      -3.134
	H_bcH2            6.088e-06       0.000   3.226e-06      -5.491

H_be          
	  6.378e-02  moles
	                                   Mole                     Log
	Species               Moles    Fraction    Molality    Molality

	H_beH-            6.230e-02       0.977   3.301e-02      -1.481
	H_be-2            9.374e-04       0.015   4.968e-04      -3.304
	H_beH2            2.735e-04       0.004   1.450e-04      -3.839
	H_beCa            2.151e-04       0.003   1.140e-04      -3.943
	H_beMg            5.598e-05       0.001   2.966e-05      -4.528

H_bg          
	  6.378e-05  moles
	                                   Mole                     Log
	Species               Moles    Fraction    Molality    Molality

	H_bgH-            6.323e-05       0.991   3.351e-05      -4.475
	H_bgH2            2.776e-07       0.004   1.471e-07      -6.832
	H_bgCa            2.183e-07       0.003   1.157e-07      -6.937
	H_bgMg            5.681e-08       0.001   3.011e-08      -7.521
	H_bg-2            1.988e-10       0.000   1.053e-10      -9.977

H_c           
	  3.837e-02  moles
	                                   Mole                     Log
	Species               Moles    Fraction    Molality    Molality

	H_cCa+            2.386e-02       0.622   1.264e-02      -1.898
	H_cMg+            8.185e-03       0.213   4.337e-03      -2.363
	H_c-              5.983e-03       0.156   3.171e-03      -2.499
	H_cH              3.463e-04       0.009   1.835e-04      -3.736

H_cd          
	  6.378e-05  moles
	                                   Mole                     Log
	Species               Moles    Fraction    Molality    Molality

	H_cdCa            4.979e-05       0.781   2.639e-05      -4.579
	H_cdMg            1.357e-05       0.213   7.192e-06      -5.143
	H_cd-2            2.326e-07       0.004   1.232e-07      -6.909
	H_cdH-            1.734e-07       0.003   9.189e-08      -7.037
	H_cdH2            1.004e-08       0.000   5.319e-09      -8.274

H_cf          
	  6.378e-02  moles
	                                   Mole                     Log
	Species               Moles    Fraction    Molality    Molality

	H_cfH-            5.718e-02       0.896   3.030e-02      -1.519
	H_cfH2            3.309e-03       0.052   1.754e-03      -2.756
	H_cfCa            2.602e-03       0.041   1.379e-03      -2.860
	H_cfMg            6.773e-04       0.011   3.589e-04      -3.445
	H_cf-2            1.244e-05       0.000   6.591e-06      -5.181

H_ch          
	  6.378e-02  moles
	                                   Mole                     Log
	Species               Moles    Fraction    Molality    Molality

	H_chH-            5.719e-02       0.897   3.031e-02      -1.518
	H_chH2            3.310e-03       0.052   1.754e-03      -2.756
	H_chCa            2.603e-03       0.041   1.379e-03      -2.860
	H_chMg            6.774e-04       0.011   3.590e-04      -3.445
	H_ch-2            2.599e-09       0.000   1.377e-09      -8.861

H_d           
	  3.837e-02  moles
	                                   Mole                     Log
	Species               Moles    Fraction    Molality    Molality

	H_dCa+            2.786e-02       0.726   1.477e-02      -1.831
	H_dMg+            9.560e-03       0.249   5.066e-03      -2.295
	H_d-              5.425e-04       0.014   2.875e-04      -3.541
	H_dH              4.045e-04       0.011   2.144e-04      -3.669

H_de          
	  6.378e-05  moles
	                                   Mole                     Log
	Species               Moles    Fraction    Molality    Molality

	H_deH-            2.552e-05       0.400   1.352e-05      -4.869
	H_deH2            1.903e-05       0.298   1.008e-05      -4.996
	H_deCa            1.496e-05       0.235   7.928e-06      -5.101
	H_deMg            3.894e-06       0.061   2.063e-06      -5.685
	H_de-2            3.840e-07       0.006   2.035e-07      -6.691

H_dg          
	  6.378e-05  moles
	                                   Mole                     Log
	Species               Moles    Fraction    Molality    Molality

	H_dgH-            2.567e-05       0.402   1.360e-05      -4.866
	H_dgH2            1.914e-05       0.300   1.014e-05      -4.994
	H_dgCa            1.505e-05       0.236   7.976e-06      -5.098
	H_dgMg            3.917e-06       0.061   2.076e-06      -5.683
	H_dg-2            8.071e-11       0.000   4.277e-11     -10.369

H_e           
	  1.919e-02  moles
	                                   Mole                     Log
	Species               Moles    Fraction    Molality    Molality

	H_eH              1.863e-02       0.971   9.875e-03      -2.005
	H_e-              2.804e-04       0.015   1.486e-04      -3.828
	H_eCa+            2.082e-04       0.011   1.103e-04      -3.957
	H_eMg+            6.666e-05       0.003   3.533e-05      -4.452

H_f           
	  1.919e-02  moles
	                                   Mole                     Log
	Species               Moles    Fraction    Molality    Molality

	H_fH              1.891e-02       0.985   1.002e-02      -1.999
	H_fCa+            2.112e-04       0.011   1.119e-04      -3.951
	H_fMg+            6.763e-05       0.004   3.584e-05      -4.446
	H_f-              4.112e-06       0.000   2.179e-06      -5.662

H_g           
	  1.919e-02  moles
	                                   Mole                     Log
	Species               Moles    Fraction    Molality    Molality

	H_gH              1.891e-02       0.985   1.002e-02      -1.999
	H_gCa+            2.113e-04       0.011   1.120e-04      -3.951
	H_gMg+            6.765e-05       0.004   3.585e-05      -4.446
	H_g-              5.945e-08       0.000   3.151e-08      -7.502

H_h           
	  1.919e-02  moles
	                                   Mole                     Log
	Species               Moles    Fraction    Molality    Molality

	H_hH              1.891e-02       0.985   1.002e-02      -1.999
	H_hCa+            2.113e-04       0.011   1.120e-04      -3.951
	H_hMg+            6.765e-05       0.004   3.585e-05      -4.446
	H_h-              8.594e-10       0.000   4.554e-10      -9.342

Hfo           
	 -9.038e-14  Surface + diffuse layer charge, eq
	 -7.866e-06  Surface charge, eq
	 -4.518e-06  sigma, C/m²
	 -5.587e-05  psi, V
	  2.175e-03  -F*psi/RT
	  1.002e+00  exp(-F*psi/RT)
	  6.000e+02  specific area, m²/g
	  1.680e+05  m² for   2.800e+02 g

	Water in diffuse layer: 1.680e+00 kg,  5.8% of total DDL-water.

	Total moles in diffuse layer (excluding water), Donnan calculation.
	Donnan Layer potential, psi_DL = -4.796e-05 V.
	Boltzmann factor, exp(-psi_DL * F / RT) = 1.002e+00 (= c_DL / c_free if z is +1).

	Element       	     Moles
	Alanine       	  8.7041e-05
	Amm           	  6.3963e-05
	C             	  1.5098e-05
	Ca            	  3.0861e-04
	Cl            	  2.2304e-04
	Cysteine      	  8.7041e-05
	Ferric        	  8.4079e-05
	Glutamine     	  8.7041e-05
	Glycine       	  8.7203e-05
	H             	  5.0128e-04
	K             	  4.7131e-05
	Methane       	  1.6801e-06
	Mg            	  1.3322e-04
	Na            	  1.9189e-04
	O             	  3.1561e-04
	Ozero         	  8.5873e-04
	P             	  8.3800e-06
	Sulfate       	  6.6964e-06
	Sulfide       	  1.6785e-07
	Threonine     	  8.7041e-05
	Tyrosine      	  8.7041e-05

Hfo_s         
	  5.000e-06  moles
	                                   Mole                     Log
	Species               Moles    Fraction    Molality    Molality

	Hfo_sOHCa+2       4.104e-06       0.821   2.175e-06      -5.663
	Hfo_sOH2+         6.131e-07       0.123   3.249e-07      -6.488
	Hfo_sOH           2.802e-07       0.056   1.485e-07      -6.828
	Hfo_sO-           2.934e-09       0.001   1.555e-09      -8.808

Hfo_w         
	  2.000e-04  moles
	                                   Mole                     Log
	Species               Moles    Fraction    Molality    Molality

	Hfo_wOH2+         7.692e-05       0.385   4.076e-05      -4.390
	Hfo_wHPO4-        6.795e-05       0.340   3.601e-05      -4.444
	Hfo_wOH           3.516e-05       0.176   1.863e-05      -4.730
	Hfo_wPO4-2        1.295e-05       0.065   6.861e-06      -5.164
	Hfo_wH2PO4        6.056e-06       0.030   3.209e-06      -5.494
	Hfo_wOMg+         5.334e-07       0.003   2.827e-07      -6.549
	Hfo_wO-           3.681e-07       0.002   1.951e-07      -6.710
	Hfo_wOCa+         6.945e-08       0.000   3.680e-08      -7.434
	Hfo_wSulfateO4-   7.769e-10       0.000   4.117e-10      -9.385
	Hfo_wOHSulfateO4-2   7.085e-10       0.000   3.755e-10      -9.425

-----------------------------------------
Beginning of batch-reaction calculations.
-----------------------------------------

Reaction step 1.

WARNING: Zero divide in BASIC line
 90  rate = get(1)*parm(4)-get(2)-get(3)-get(3)+get(11)*get(11)/(get(11)+get(12)+get(13))+get(12)*get(12)/(get(11)+get(12)+get(13))+get(13)*get(13)/(get(11)+get(12)+get(13)).
Value set to zero.
WARNING: Zero divide in BASIC line
 90  rate = get(1)*parm(4)-get(2)-get(3)-get(3)+get(11)*get(11)/(get(11)+get(12)+get(13))+get(12)*get(12)/(get(11)+get(12)+get(13))+get(13)*get(13)/(get(11)+get(12)+get(13)).
Value set to zero.
WARNING: Zero divide in BASIC line
 90  rate = get(1)*parm(4)-get(2)-get(3)-get(3)+get(11)*get(11)/(get(11)+get(12)+get(13))+get(12)*get(12)/(get(11)+get(12)+get(13))+get(13)*get(13)/(get(11)+get(12)+get(13)).
Value set to zero.
WARNING: Zero divide in BASIC line
 20  rate = parm(1)* mDOM+parm(2)* get(2)-get(11)*2.44*get(11)/(get(11)+get(12)+get(13))-get(12)*10*get(12)/(get(11)+get(12)+get(13))-get(13)*41.48*get(13)/(get(11)+get(12)+get(13)).
Value set to zero.
WARNING: Zero divide in BASIC line
 20  rate = parm(1)* mDOM+parm(2)* get(2)-get(11)*2.44*get(11)/(get(11)+get(12)+get(13))-get(12)*10*get(12)/(get(11)+get(12)+get(13))-get(13)*41.48*get(13)/(get(11)+get(12)+get(13)).
Value set to zero.
WARNING: Zero divide in BASIC line
 20  rate = parm(1)* mDOM+parm(2)* get(2)-get(11)*2.44*get(11)/(get(11)+get(12)+get(13))-get(12)*10*get(12)/(get(11)+get(12)+get(13))-get(13)*41.48*get(13)/(get(11)+get(12)+get(13)).
Value set to zero.
WARNING: CVode incomplete at cvode_steps 100. Cell: 0	Time: 8.203411e-01	Cvode calls: 1, continuing...

Using solution 1.	
Using exchange 1.	Exchange assemblage after simulation 3.
Using surface 1.	
Using pure phase assemblage 1.	
Using gas phase 1.	fixed volume gas phase
Using kinetics 1.	Decomposition  

Kinetics 1.	Decomposition  

	Time step: 1 seconds  (Incremented time: 1 seconds)

	Rate name       Delta Moles Total Moles   Reactant        Coefficient

	BA                1.216e-01   6.416e-01   CH2O                      0
	OAC               4.488e-02   4.588e-02   CH2O                      0
	Aero              1.059e-02   1.011e+00   CH2O                      0
	                                          HCO3                  -1.44
	                                          Ozero2                 1.44
	SulR              1.983e-07   1.000e+00   CH2O                      0
	                                          HCO3                     -9
	                                          HSulfide-              -4.5
	                                          SulfateO4-2             4.5
	Meth             -0.000e+00   1.000e+00   CH2O                      0
	                                          HCO3                  20.24
	                                          MethaneH4            -20.24
	POM              -1.441e-01   4.566e+00   CH2O                      0
	MOM               7.433e-02   1.597e+01   CH2O                      0
	DOM              -2.671e-01   2.129e-01   CH2O                      0
	QOM              -8.663e-03   1.758e+00   CH2O                      0
	EP                5.309e-04   5.253e-02   CH2O                      0
	EM                5.309e-04   5.253e-02   CH2O                      0
	respiration       3.688e-01   3.688e-01   CH2O                      0
	Tot              -3.690e-01   2.312e+01   CH2O                      0
	Salt              9.851e-04   1.985e-03   CH2O                      0
	                                          Ca+2                     -2
	                                          Cl-                     -28
	                                          HCO3                     -3
	                                          K+                       -1
	                                          Mg+2                     -4
	                                          Na+                     -25
	                                          Nitrate                  -5
	                                          Sulfate                  -1
	Caero             2.586e-02   2.586e-02   CH2O                      0
	Csulr             4.668e-05   4.668e-05   CH2O                      0
	Cmeth            -0.000e+00   0.000e+00   CH2O                      0

-----------------------------------Gas phase-----------------------------------

Total pressure:  0.01      atmospheres 
    Gas volume:   9.00e-01 liters
  Molar volume:   2.48e+03 liters/mole

                                                        Moles in gas
                                            ----------------------------------
Component                log P           P     Initial       Final       Delta

redoxCH4(g)              -3.41   3.893e-04   0.000e+00   1.432e-05   1.432e-05
redoxCO2(g)              -2.02   9.453e-03   1.162e-05   3.477e-04   3.361e-04
redoxO2(g)               -5.15   7.110e-06   7.357e-03   2.615e-07  -7.357e-03

-------------------------------Phase assemblage--------------------------------

                                                      Moles in assemblage
Phase               SI  log IAP  log K(T, P)   Initial       Final       Delta

Hydroxyapatite    0.00    -3.42     -3.42    1.000e-03   3.763e-04  -6.237e-04
redoxCalcite     -1.61   -10.09     -8.48    1.000e-03           0  -1.000e-03
redoxFe(OH)3(a)    0.00     4.89      4.89    2.000e+00   2.005e+00   4.653e-03
redoxFeS(ppt)    -2.49    -6.41     -3.92    1.000e-03           0  -1.000e-03
redoxPyrite       0.00   -18.48    -18.48    1.000e-03   1.428e-03   4.281e-04

------------------------------Surface composition------------------------------

Diffuse Double Layer Surface-Complexation Model

H             
	 -2.763e-09  Surface + diffuse layer charge, eq
	 -5.800e-01  Surface charge, eq
	 -2.047e-02  sigma, C/m²
	 -8.214e-02  psi, V
	  3.197e+00  -F*psi/RT
	  2.446e+01  exp(-F*psi/RT)
	  3.417e+04  specific area, m²/g
	  2.734e+06  m² for   8.000e+01 g

	Water in diffuse layer: 2.734e+01 kg, 94.2% of total DDL-water.

	Total moles in diffuse layer (excluding water), Donnan calculation.
	Donnan Layer potential, psi_DL = -2.465e-02 V.
	Boltzmann factor, exp(-psi_DL * F / RT) = 2.611e+00 (= c_DL / c_free if z is +1).

	Element       	     Moles
	Alanine       	  1.2089e-04
	Amm           	  6.2979e-03
	C             	  1.5683e-02
	Ca            	  2.0332e-01
	Cl            	  2.1414e-02
	Cysteine      	  1.2213e-04
	Ferric        	  3.9031e-06
	Ferrous       	  1.5287e-05
	Glutamine     	  1.2074e-04
	Glycine       	  3.2148e-04
	H             	  5.5171e-02
	K             	  4.7906e-03
	Methane       	  1.4671e-05
	Mg            	  8.7472e-02
	Na            	  2.3980e-02
	Nitrate       	  3.6772e-03
	O             	  5.7667e-02
	Ozero         	  4.9742e-07
	P             	  1.4075e-03
	Sulfate       	  6.8332e-04
	Sulfide       	  1.2603e-04
	Threonine     	  1.2074e-04
	Tyrosine      	  1.2074e-04

H_a           
	  3.837e-02  moles
	                                   Mole                     Log
	Species               Moles    Fraction    Molality    Molality

	H_a-              3.777e-02       0.984   2.002e-02      -1.699
	H_aCa+            4.435e-04       0.012   2.351e-04      -3.629
	H_aMg+            1.520e-04       0.004   8.059e-05      -4.094
	H_aH              9.260e-06       0.000   4.908e-06      -5.309

H_ab          
	  6.378e-02  moles
	                                   Mole                     Log
	Species               Moles    Fraction    Molality    Molality

	H_ab-2            6.328e-02       0.992   3.354e-02      -1.474
	H_abCa            2.350e-04       0.004   1.246e-04      -3.905
	H_abH-            1.999e-04       0.003   1.059e-04      -3.975
	H_abMg            6.400e-05       0.001   3.392e-05      -4.470
	H_abH2            4.902e-08       0.000   2.598e-08      -7.585

H_ad          
	  6.378e-02  moles
	                                   Mole                     Log
	Species               Moles    Fraction    Molality    Molality

	H_ad-2            2.727e-02       0.428   1.445e-02      -1.840
	H_adCa            1.720e-02       0.270   9.115e-03      -2.040
	H_adH-            1.463e-02       0.229   7.753e-03      -2.111
	H_adMg            4.683e-03       0.073   2.482e-03      -2.605
	H_adH2            3.587e-06       0.000   1.901e-06      -5.721

H_af          
	  6.378e-02  moles
	                                   Mole                     Log
	Species               Moles    Fraction    Molality    Molality

	H_afH-            5.770e-02       0.905   3.058e-02      -1.515
	H_afCa            6.046e-03       0.095   3.204e-03      -2.494
	H_af-2            1.744e-05       0.000   9.245e-06      -5.034
	H_afH2            1.415e-05       0.000   7.499e-06      -5.125
	H_afMg            2.796e-06       0.000   1.482e-06      -5.829

H_ah          
	  6.378e-02  moles
	                                   Mole                     Log
	Species               Moles    Fraction    Molality    Molality

	H_ahH-            6.375e-02       1.000   3.379e-02      -1.471
	H_ahH2            1.563e-05       0.000   8.285e-06      -5.082
	H_ahCa            1.188e-05       0.000   6.296e-06      -5.201
	H_ahMg            3.089e-06       0.000   1.637e-06      -5.786
	H_ah-2            4.027e-09       0.000   2.134e-09      -8.671

H_b           
	  3.837e-02  moles
	                                   Mole                     Log
	Species               Moles    Fraction    Molality    Molality

	H_b-              3.181e-02       0.829   1.686e-02      -1.773
	H_bCa+            4.812e-03       0.125   2.551e-03      -2.593
	H_bMg+            1.650e-03       0.043   8.744e-04      -3.058
	H_bH              1.005e-04       0.003   5.325e-05      -4.274

H_bc          
	  6.378e-02  moles
	                                   Mole                     Log
	Species               Moles    Fraction    Molality    Molality

	H_bc-2            3.458e-02       0.542   1.833e-02      -1.737
	H_bcCa            2.181e-02       0.342   1.156e-02      -1.937
	H_bcMg            5.940e-03       0.093   3.148e-03      -2.502
	H_bcH-            1.440e-03       0.023   7.633e-04      -3.117
	H_bcH2            4.549e-06       0.000   2.411e-06      -5.618

H_be          
	  6.378e-02  moles
	                                   Mole                     Log
	Species               Moles    Fraction    Molality    Molality

	H_beH-            6.210e-02       0.974   3.291e-02      -1.483
	H_be-2            1.299e-03       0.020   6.884e-04      -3.162
	H_beH2            1.962e-04       0.003   1.040e-04      -3.983
	H_beCa            1.491e-04       0.002   7.900e-05      -4.102
	H_beMg            3.876e-05       0.001   2.054e-05      -4.687

H_bg          
	  6.378e-05  moles
	                                   Mole                     Log
	Species               Moles    Fraction    Molality    Molality

	H_bgH-            6.339e-05       0.994   3.360e-05      -4.474
	H_bgH2            2.002e-07       0.003   1.061e-07      -6.974
	H_bgCa            1.522e-07       0.002   8.064e-08      -7.093
	H_bgMg            3.957e-08       0.001   2.097e-08      -7.678
	H_bg-2            2.770e-10       0.000   1.468e-10      -9.833

H_c           
	  3.837e-02  moles
	                                   Mole                     Log
	Species               Moles    Fraction    Molality    Molality

	H_cCa+            2.057e-02       0.536   1.090e-02      -1.962
	H_c-              1.031e-02       0.269   5.467e-03      -2.262
	H_cMg+            7.053e-03       0.184   3.738e-03      -2.427
	H_cH              4.295e-04       0.011   2.277e-04      -3.643

H_cd          
	  6.378e-05  moles
	                                   Mole                     Log
	Species               Moles    Fraction    Molality    Molality

	H_cdCa            4.956e-05       0.777   2.627e-05      -4.581
	H_cdMg            1.350e-05       0.212   7.153e-06      -5.146
	H_cd-2            4.627e-07       0.007   2.452e-07      -6.610
	H_cdH-            2.482e-07       0.004   1.316e-07      -6.881
	H_cdH2            1.034e-08       0.000   5.479e-09      -8.261

H_cf          
	  6.378e-02  moles
	                                   Mole                     Log
	Species               Moles    Fraction    Molality    Molality

	H_cfH-            5.896e-02       0.924   3.125e-02      -1.505
	H_cfH2            2.455e-03       0.038   1.301e-03      -2.886
	H_cfCa            1.866e-03       0.029   9.888e-04      -3.005
	H_cfMg            4.852e-04       0.008   2.571e-04      -3.590
	H_cf-2            1.782e-05       0.000   9.447e-06      -5.025

H_ch          
	  6.378e-02  moles
	                                   Mole                     Log
	Species               Moles    Fraction    Molality    Molality

	H_chH-            5.897e-02       0.925   3.126e-02      -1.505
	H_chH2            2.456e-03       0.039   1.302e-03      -2.886
	H_chCa            1.866e-03       0.029   9.891e-04      -3.005
	H_chMg            4.853e-04       0.008   2.572e-04      -3.590
	H_ch-2            3.725e-09       0.000   1.974e-09      -8.705

H_d           
	  3.837e-02  moles
	                                   Mole                     Log
	Species               Moles    Fraction    Molality    Molality

	H_dCa+            2.736e-02       0.713   1.450e-02      -1.839
	H_dMg+            9.378e-03       0.244   4.970e-03      -2.304
	H_d-              1.065e-03       0.028   5.643e-04      -3.248
	H_dH              5.712e-04       0.015   3.027e-04      -3.519

H_de          
	  6.378e-05  moles
	                                   Mole                     Log
	Species               Moles    Fraction    Molality    Molality

	H_deH-            3.080e-05       0.483   1.632e-05      -4.787
	H_deH2            1.652e-05       0.259   8.756e-06      -5.058
	H_deCa            1.255e-05       0.197   6.654e-06      -5.177
	H_deMg            3.265e-06       0.051   1.730e-06      -5.762
	H_de-2            6.441e-07       0.010   3.414e-07      -6.467

H_dg          
	  6.378e-05  moles
	                                   Mole                     Log
	Species               Moles    Fraction    Molality    Molality

	H_dgH-            3.111e-05       0.488   1.649e-05      -4.783
	H_dgH2            1.669e-05       0.262   8.845e-06      -5.053
	H_dgCa            1.268e-05       0.199   6.722e-06      -5.173
	H_dgMg            3.298e-06       0.052   1.748e-06      -5.757
	H_dg-2            1.359e-10       0.000   7.205e-11     -10.142

H_e           
	  1.919e-02  moles
	                                   Mole                     Log
	Species               Moles    Fraction    Molality    Molality

	H_eH              1.861e-02       0.970   9.863e-03      -2.006
	H_e-              3.892e-04       0.020   2.063e-04      -3.686
	H_eCa+            1.446e-04       0.008   7.661e-05      -4.116
	H_eMg+            4.625e-05       0.002   2.451e-05      -4.611

H_f           
	  1.919e-02  moles
	                                   Mole                     Log
	Species               Moles    Fraction    Molality    Molality

	H_fH              1.899e-02       0.990   1.006e-02      -1.997
	H_fCa+            1.475e-04       0.008   7.818e-05      -4.107
	H_fMg+            4.719e-05       0.002   2.501e-05      -4.602
	H_f-              5.741e-06       0.000   3.043e-06      -5.517

H_g           
	  1.919e-02  moles
	                                   Mole                     Log
	Species               Moles    Fraction    Molality    Molality

	H_gH              1.900e-02       0.990   1.007e-02      -1.997
	H_gCa+            1.475e-04       0.008   7.820e-05      -4.107
	H_gMg+            4.721e-05       0.002   2.502e-05      -4.602
	H_g-              8.301e-08       0.000   4.399e-08      -7.357

H_h           
	  1.919e-02  moles
	                                   Mole                     Log
	Species               Moles    Fraction    Molality    Molality

	H_hH              1.900e-02       0.990   1.007e-02      -1.997
	H_hCa+            1.475e-04       0.008   7.820e-05      -4.107
	H_hMg+            4.721e-05       0.002   2.502e-05      -4.602
	H_h-              1.200e-09       0.000   6.359e-10      -9.197

Hfo           
	 -6.384e-13  Surface + diffuse layer charge, eq
	 -1.394e-04  Surface charge, eq
	 -8.008e-05  sigma, C/m²
	 -4.767e-04  psi, V
	  1.856e-02  -F*psi/RT
	  1.019e+00  exp(-F*psi/RT)
	  6.000e+02  specific area, m²/g
	  1.680e+05  m² for   2.800e+02 g

	Water in diffuse layer: 1.680e+00 kg,  5.8% of total DDL-water.

	Total moles in diffuse layer (excluding water), Donnan calculation.
	Donnan Layer potential, psi_DL = -1.964e-04 V.
	Boltzmann factor, exp(-psi_DL * F / RT) = 1.008e+00 (= c_DL / c_free if z is +1).

	Element       	     Moles
	Alanine       	  4.9760e-05
	Amm           	  1.4967e-04
	C             	  1.5549e-03
	Ca            	  1.8936e-03
	Cl            	  3.4095e-03
	Cysteine      	  4.9543e-05
	Ferric        	  1.1466e-07
	Ferrous       	  1.5322e-07
	Glutamine     	  4.9785e-05
	Glycine       	  5.1104e-05
	H             	  3.2112e-03
	K             	  1.1368e-04
	Methane       	  9.0164e-07
	Mg            	  8.1728e-04
	Na            	  5.6909e-04
	Nitrate       	  5.8550e-04
	O             	  7.2545e-03
	Ozero         	  3.0570e-08
	P             	  1.9243e-04
	Sulfate       	  1.5083e-04
	Sulfide       	  9.6636e-06
	Threonine     	  4.9785e-05
	Tyrosine      	  4.9785e-05

Hfo_s         
	  5.000e-06  moles
	                                   Mole                     Log
	Species               Moles    Fraction    Molality    Molality

	Hfo_sOHCa+2       4.632e-06       0.926   2.455e-06      -5.610
	Hfo_sOH2+         3.062e-07       0.061   1.623e-07      -6.790
	Hfo_sOH           5.983e-08       0.012   3.171e-08      -7.499
	Hfo_sOFerrous+    1.551e-09       0.000   8.221e-10      -9.085
	Hfo_sO-           2.678e-10       0.000   1.419e-10      -9.848

Hfo_w         
	  2.000e-04  moles
	                                   Mole                     Log
	Species               Moles    Fraction    Molality    Molality

	Hfo_wHPO4-        1.411e-04       0.705   7.477e-05      -4.126
	Hfo_wH2PO4        2.941e-05       0.147   1.559e-05      -4.807
	Hfo_wOH2+         1.497e-05       0.075   7.932e-06      -5.101
	Hfo_wPO4-2        1.149e-05       0.057   6.091e-06      -5.215
	Hfo_wOH           2.924e-06       0.015   1.550e-06      -5.810
	Hfo_wOMg+         1.002e-07       0.001   5.311e-08      -7.275
	Hfo_wO-           1.309e-08       0.000   6.938e-09      -8.159
	Hfo_wOCa+         1.306e-08       0.000   6.921e-09      -8.160
	Hfo_wSulfateO4-   2.525e-09       0.000   1.338e-09      -8.873
	Hfo_wOHSulfateO4-2   9.845e-10       0.000   5.218e-10      -9.283
	Hfo_wOFerrous+    7.076e-10       0.000   3.750e-10      -9.426
	Hfo_wOFerrousOH   7.256e-12       0.000   3.846e-12     -11.415

-----------------------------Exchange composition------------------------------

X                1.600e+01 mol

	                               Equiv-    Equivalent      Log 
	Species             Moles      alents      Fraction     Gamma

	CaX2              5.132e+00   1.026e+01   6.415e-01     0.000
	MgX2              2.788e+00   5.576e+00   3.485e-01     0.000
	NaX               8.888e-02   8.888e-02   5.555e-03     0.000
	AmmH4X            4.133e-02   4.133e-02   2.583e-03     0.000
	KX                2.810e-02   2.810e-02   1.756e-03     0.000
	HX                7.909e-04   7.909e-04   4.943e-05    -0.031
	FerrousX2         5.563e-04   1.113e-03   6.953e-05    -0.131

-----------------------------Solution composition------------------------------

	Elements           Molality       Moles

	Alanine           3.008e-05   5.675e-05
	Amm               8.841e-05   1.668e-04
	C                 9.300e-04   1.755e-03
	Ca                1.110e-03   2.095e-03
	Cl                2.045e-03   3.859e-03
	Cysteine          2.994e-05   5.650e-05
	Ferric            6.789e-08   1.281e-07
	Ferrous           8.994e-08   1.697e-07
	Glutamine         3.009e-05   5.677e-05
	Glycine           3.065e-05   5.783e-05
	K                 6.715e-05   1.267e-04
	Methane           5.367e-07   1.013e-06
	Mg                4.793e-04   9.043e-04
	Na                3.362e-04   6.343e-04
	Nitrate           3.512e-04   6.626e-04
	Ozero             1.820e-08   3.433e-08
	P                 1.155e-04   2.179e-04
	Sulfate           9.095e-05   1.716e-04
	Sulfide           5.766e-06   1.088e-05
	Threonine         3.009e-05   5.677e-05
	Tyrosine          3.009e-05   5.678e-05

----------------------------Description of solution----------------------------

                                       pH  =   6.589      Charge balance
                                       pe  =  -6.450      Adjusted to redox equilibrium
      Specific Conductance (µS/cm,  25°C)  = 399
                        Activity of water  =   1.000
                 Ionic strength (mol/kgw)  =   5.412e-03
                       Mass of water (kg)  =   1.887e+00
                 Total alkalinity (eq/kg)  =   8.273e-04
                       Total CO2 (mol/kg)  =   9.300e-04
                         Temperature (°C)  =  25.00
                           Pressure (atm)  =  0.01
                  Electrical balance (eq)  =   4.149e-09
 Percent error, 100*(Cat-|An|)/(Cat+|An|)  =   0.00
                               Iterations  = 817
                                  Total H  = 2.094608e+02
                                  Total O  = 1.047368e+02

----------------------------Distribution of species----------------------------

                                               Log       Log       Log    mole V
   Species          Molality    Activity  Molality  Activity     Gamma   cm³/mol

   H+              2.766e-07   2.576e-07    -6.558    -6.589    -0.031      0.00
   OH-             4.207e-08   3.885e-08    -7.376    -7.411    -0.035     (0)  
   H2O             5.551e+01   9.999e-01     1.744    -0.000     0.000     18.07
Alanine       3.008e-05
   Alanine-2       3.006e-05   2.196e-05    -4.522    -4.658    -0.136     (0)  
   H2(Alanine)     1.079e-08   1.080e-08    -7.967    -7.966     0.001     (0)  
   H(Alanine)-     1.370e-09   1.266e-09    -8.863    -8.897    -0.034     (0)  
Amm           8.841e-05
   AmmH4+          8.817e-05   8.127e-05    -4.055    -4.090    -0.035     (0)  
   AmmH3           1.795e-07   1.798e-07    -6.746    -6.745     0.001     (0)  
   AmmH4SulfateO4-   6.417e-08   5.932e-08    -7.193    -7.227    -0.034     (0)  
C(4)          9.300e-04
   HCO3-           5.997e-04   5.555e-04    -3.222    -3.255    -0.033     (0)  
   CO2             3.214e-04   3.218e-04    -3.493    -3.492     0.001     (0)  
   CaHCO3+         6.116e-06   5.666e-06    -5.214    -5.247    -0.033     (0)  
   MgHCO3+         2.426e-06   2.243e-06    -5.615    -5.649    -0.034     (0)  
   CO3-2           1.373e-07   1.011e-07    -6.862    -6.995    -0.133     (0)  
   CaCO3           1.356e-07   1.358e-07    -6.868    -6.867     0.001     (0)  
   NaHCO3          9.697e-08   9.709e-08    -7.013    -7.013     0.001     (0)  
   MgCO3           3.325e-08   3.329e-08    -7.478    -7.478     0.001     (0)  
   FerrousHCO3+    3.512e-09   3.246e-09    -8.454    -8.489    -0.034     (0)  
   NaCO3-          6.331e-10   5.852e-10    -9.199    -9.233    -0.034     (0)  
   FerrousCO3      1.416e-10   1.418e-10    -9.849    -9.848     0.001     (0)  
Ca            1.110e-03
   Ca+2            1.086e-03   7.994e-04    -2.964    -3.097    -0.133     (0)  
   CaSulfateO4     9.026e-06   9.037e-06    -5.045    -5.044     0.001     (0)  
   CaHPO4          7.545e-06   7.554e-06    -5.122    -5.122     0.001     (0)  
   CaHCO3+         6.116e-06   5.666e-06    -5.214    -5.247    -0.033     (0)  
   CaH2PO4+        1.582e-06   1.463e-06    -5.801    -5.835    -0.034     (0)  
   CaCO3           1.356e-07   1.358e-07    -6.868    -6.867     0.001     (0)  
   CaPO4-          7.504e-08   6.937e-08    -7.125    -7.159    -0.034     (0)  
   CaOH+           5.570e-10   5.149e-10    -9.254    -9.288    -0.034     (0)  
   CaHSulfateO4+   1.476e-11   1.364e-11   -10.831   -10.865    -0.034     (0)  
Cl            2.045e-03
   Cl-             2.045e-03   1.889e-03    -2.689    -2.724    -0.035     (0)  
   FerrousCl+      1.648e-10   1.524e-10    -9.783    -9.817    -0.034     (0)  
   FerricCl+2      1.040e-16   7.592e-17   -15.983   -16.120    -0.136     (0)  
   FerricCl2+      6.929e-19   6.405e-19   -18.159   -18.193    -0.034     (0)  
   FerricCl3       1.208e-22   1.210e-22   -21.918   -21.917     0.001     (0)  
Cysteine      2.994e-05
   Cysteine-2      2.986e-05   2.180e-05    -4.525    -4.661    -0.136     (0)  
   H2(Cysteine)    8.709e-08   8.720e-08    -7.060    -7.059     0.001     (0)  
   H(Cysteine)-    3.116e-10   2.881e-10    -9.506    -9.540    -0.034     (0)  
Ferric        6.789e-08
   Ferric(OH)2+    4.636e-08   4.286e-08    -7.334    -7.368    -0.034     (0)  
   Ferric(OH)3     2.140e-08   2.143e-08    -7.670    -7.669     0.001     (0)  
   Ferric(OH)4-    8.205e-11   7.585e-11   -10.086   -10.120    -0.034     (0)  
   FerricOH+2      4.567e-11   3.335e-11   -10.340   -10.477    -0.136     (0)  
   FerricH2PO4+2   3.508e-14   2.562e-14   -13.455   -13.591    -0.136     (0)  
   FerricHPO4+     6.679e-15   6.174e-15   -14.175   -14.209    -0.034     (0)  
   Ferric+3        2.521e-15   1.331e-15   -14.598   -14.876    -0.277     (0)  
   FerricSulfateO4+   8.944e-16   8.268e-16   -15.048   -15.083    -0.034     (0)  
   FerricCl+2      1.040e-16   7.592e-17   -15.983   -16.120    -0.136     (0)  
   Ferric(SulfateO4)2-   1.109e-18   1.025e-18   -17.955   -17.989    -0.034     (0)  
   FerricCl2+      6.929e-19   6.405e-19   -18.159   -18.193    -0.034     (0)  
   Ferric2(OH)2+4   1.052e-19   2.994e-20   -18.978   -19.524    -0.546     (0)  
   FerricHSulfateO4+2   7.811e-22   5.704e-22   -21.107   -21.244    -0.136     (0)  
   FerricCl3       1.208e-22   1.210e-22   -21.918   -21.917     0.001     (0)  
   Ferric3(OH)4+5   1.911e-24   2.681e-25   -23.719   -24.572    -0.853     (0)  
Ferrous       8.994e-08
   Ferrous+2       7.903e-08   5.844e-08    -7.102    -7.233    -0.131     (0)  
   FerrousHPO4     4.005e-09   4.010e-09    -8.397    -8.397     0.001     (0)  
   FerrousHCO3+    3.512e-09   3.246e-09    -8.454    -8.489    -0.034     (0)  
   FerrousH2PO4+   2.266e-09   2.095e-09    -8.645    -8.679    -0.034     (0)  
   FerrousSulfateO4   5.881e-10   5.888e-10    -9.231    -9.230     0.001     (0)  
   FerrousCl+      1.648e-10   1.524e-10    -9.783    -9.817    -0.034     (0)  
   Ferrous(HSulfide)2   1.557e-10   1.559e-10    -9.808    -9.807     0.001     (0)  
   FerrousCO3      1.416e-10   1.418e-10    -9.849    -9.848     0.001     (0)  
   FerrousOH+      7.758e-11   7.172e-11   -10.110   -10.144    -0.034     (0)  
   Ferrous(HSulfide)3-   3.177e-14   2.937e-14   -13.498   -13.532    -0.034     (0)  
   FerrousHSulfateO4+   1.079e-15   9.971e-16   -14.967   -15.001    -0.034     (0)  
Glutamine     3.009e-05
   Glutamine-2     3.009e-05   2.197e-05    -4.522    -4.658    -0.136     (0)  
   H2(Glutamine)   1.965e-09   1.967e-09    -8.707    -8.706     0.001     (0)  
   H(Glutamine)-   9.058e-10   8.373e-10    -9.043    -9.077    -0.034     (0)  
Glycine       3.065e-05
   Glycine-        3.064e-05   2.833e-05    -4.514    -4.548    -0.034     (0)  
   H2(Glycine)+    8.097e-09   7.485e-09    -8.092    -8.126    -0.034     (0)  
   H(Glycine)      1.595e-09   1.597e-09    -8.797    -8.797     0.001     (0)  
H(0)          7.453e-04
   H2              3.727e-04   3.731e-04    -3.429    -3.428     0.001     (0)  
K             6.715e-05
   K+              6.712e-05   6.199e-05    -4.173    -4.208    -0.035     (0)  
   KSulfateO4-     2.670e-08   2.468e-08    -7.574    -7.608    -0.034     (0)  
   KHPO4-          2.254e-09   2.083e-09    -8.647    -8.681    -0.034     (0)  
   KOH             8.332e-13   8.343e-13   -12.079   -12.079     0.001     (0)  
Methane       5.367e-07
   MethaneH4       5.367e-07   5.374e-07    -6.270    -6.270     0.001     (0)  
Mg            4.793e-04
   Mg+2            4.669e-04   3.450e-04    -3.331    -3.462    -0.131     (0)  
   MgSulfateO4     4.577e-06   4.583e-06    -5.339    -5.339     0.001     (0)  
   MgHPO4          4.403e-06   4.408e-06    -5.356    -5.356     0.001     (0)  
   MgHCO3+         2.426e-06   2.243e-06    -5.615    -5.649    -0.034     (0)  
   MgH2PO4+        8.697e-07   8.040e-07    -6.061    -6.095    -0.034     (0)  
   MgPO4-          4.369e-08   4.039e-08    -7.360    -7.394    -0.034     (0)  
   MgCO3           3.325e-08   3.329e-08    -7.478    -7.478     0.001     (0)  
   MgOH+           5.259e-09   4.862e-09    -8.279    -8.313    -0.034     (0)  
Na            3.362e-04
   Na+             3.360e-04   3.108e-04    -3.474    -3.508    -0.034     (0)  
   NaHCO3          9.697e-08   9.709e-08    -7.013    -7.013     0.001     (0)  
   NaSulfateO4-    9.547e-08   8.826e-08    -7.020    -7.054    -0.034     (0)  
   NaHPO4-         1.130e-08   1.044e-08    -7.947    -7.981    -0.034     (0)  
   NaCO3-          6.331e-10   5.852e-10    -9.199    -9.233    -0.034     (0)  
   NaOH            7.960e-12   7.970e-12   -11.099   -11.099     0.001     (0)  
Nitrate       3.512e-04
   NitrateO3-      3.512e-04   3.246e-04    -3.454    -3.489    -0.034     (0)  
O(0)          0.000e+00
   O2              0.000e+00   0.000e+00   -85.524   -85.524     0.001     (0)  
Ozero         1.820e-08
   Ozero2          9.098e-09   9.110e-09    -8.041    -8.040     0.001     (0)  
P             1.155e-04
   H2PO4-          7.731e-05   7.152e-05    -4.112    -4.146    -0.034     (0)  
   HPO4-2          2.362e-05   1.724e-05    -4.627    -4.764    -0.137     (0)  
   CaHPO4          7.545e-06   7.554e-06    -5.122    -5.122     0.001     (0)  
   MgHPO4          4.403e-06   4.408e-06    -5.356    -5.356     0.001     (0)  
   CaH2PO4+        1.582e-06   1.463e-06    -5.801    -5.835    -0.034     (0)  
   MgH2PO4+        8.697e-07   8.040e-07    -6.061    -6.095    -0.034     (0)  
   CaPO4-          7.504e-08   6.937e-08    -7.125    -7.159    -0.034     (0)  
   MgPO4-          4.369e-08   4.039e-08    -7.360    -7.394    -0.034     (0)  
   NaHPO4-         1.130e-08   1.044e-08    -7.947    -7.981    -0.034     (0)  
   FerrousHPO4     4.005e-09   4.010e-09    -8.397    -8.397     0.001     (0)  
   FerrousH2PO4+   2.266e-09   2.095e-09    -8.645    -8.679    -0.034     (0)  
   KHPO4-          2.254e-09   2.083e-09    -8.647    -8.681    -0.034     (0)  
   PO4-3           6.129e-11   3.016e-11   -10.213   -10.521    -0.308     (0)  
   FerricH2PO4+2   3.508e-14   2.562e-14   -13.455   -13.591    -0.136     (0)  
   FerricHPO4+     6.679e-15   6.174e-15   -14.175   -14.209    -0.034     (0)  
Sulfate       9.095e-05
   SulfateO4-2     7.716e-05   5.666e-05    -4.113    -4.247    -0.134     (0)  
   CaSulfateO4     9.026e-06   9.037e-06    -5.045    -5.044     0.001     (0)  
   MgSulfateO4     4.577e-06   4.583e-06    -5.339    -5.339     0.001     (0)  
   NaSulfateO4-    9.547e-08   8.826e-08    -7.020    -7.054    -0.034     (0)  
   AmmH4SulfateO4-   6.417e-08   5.932e-08    -7.193    -7.227    -0.034     (0)  
   KSulfateO4-     2.670e-08   2.468e-08    -7.574    -7.608    -0.034     (0)  
   HSulfateO4-     1.535e-09   1.419e-09    -8.814    -8.848    -0.034     (0)  
   FerrousSulfateO4   5.881e-10   5.888e-10    -9.231    -9.230     0.001     (0)  
   CaHSulfateO4+   1.476e-11   1.364e-11   -10.831   -10.865    -0.034     (0)  
   FerrousHSulfateO4+   1.079e-15   9.971e-16   -14.967   -15.001    -0.034     (0)  
   FerricSulfateO4+   8.944e-16   8.268e-16   -15.048   -15.083    -0.034     (0)  
   Ferric(SulfateO4)2-   1.109e-18   1.025e-18   -17.955   -17.989    -0.034     (0)  
   FerricHSulfateO4+2   7.811e-22   5.704e-22   -21.107   -21.244    -0.136     (0)  
Sulfide       5.766e-06
   H2Sulfide       3.892e-06   3.897e-06    -5.410    -5.409     0.001     (0)  
   HSulfide-       1.874e-06   1.730e-06    -5.727    -5.762    -0.035     (0)  
   Ferrous(HSulfide)2   1.557e-10   1.559e-10    -9.808    -9.807     0.001     (0)  
   Sulfide-2       1.104e-12   8.111e-13   -11.957   -12.091    -0.134     (0)  
   Ferrous(HSulfide)3-   3.177e-14   2.937e-14   -13.498   -13.532    -0.034     (0)  
Threonine     3.009e-05
   Threonine-2     3.009e-05   2.197e-05    -4.522    -4.658    -0.136     (0)  
   H2(Threonine)   1.920e-09   1.923e-09    -8.717    -8.716     0.001     (0)  
   H(Threonine)-   8.650e-10   7.996e-10    -9.063    -9.097    -0.034     (0)  
Tyrosine      3.009e-05
   Tyrosine-2      3.009e-05   2.197e-05    -4.522    -4.658    -0.136     (0)  
   H2(Tyrosine)    1.877e-09   1.879e-09    -8.727    -8.726     0.001     (0)  
   H(Tyrosine)-    9.706e-10   8.972e-10    -9.013    -9.047    -0.034     (0)  

------------------------------Saturation indices-------------------------------

  Phase               SI** log IAP   log K(298 K,   0 atm)

  FixpH            -6.59     -6.59    0.00  H+
  H2(g)            -0.28     -3.43   -3.15  H2
  H2O(g)           -1.51     -0.00    1.51  H2O
  Halite           -7.81     -6.23    1.58  NaCl
  Hydroxyapatite    0.00     -3.42   -3.42  Ca5(PO4)3OH
  ORM             760.12   -119.11 -879.23  C5H4O2Amm
  redoxAnhydrite   -2.98     -7.34   -4.36  CaSulfateO4
  redoxAragonite   -1.76    -10.09   -8.34  CaCO3
  redoxCalcite     -1.61    -10.09   -8.48  CaCO3
  redoxCH4(g)      -3.41     -6.27   -2.86  MethaneH4
  redoxCO2(g)      -2.02     -3.49   -1.47  CO2
  redoxDolomite    -3.46    -20.55  -17.09  CaMg(CO3)2
  redoxFe(OH)3(a)   0.00      4.89    4.89  Ferric(OH)3
  redoxFeS(ppt)    -2.49     -6.41   -3.92  FerrousSulfide
  redoxGoethite     5.89      4.89   -1.00  FerricOOH
  redoxGypsum      -2.76     -7.34   -4.58  CaSulfateO4:2H2O
  redoxH2S(g)      -4.41     -5.41   -1.00  H2Sulfide
  redoxHematite    13.79      9.78   -4.01  Ferric2O3
  redoxJarosite-K  -8.58    -17.79   -9.21  KFerric3(SulfateO4)2(OH)6
  redoxMackinawite  -1.76     -6.41   -4.65  FerrousSulfide
  redoxMelanterite  -9.27    -11.48   -2.21  FerrousSulfateO4:7H2O
  redoxNH3(g)      -8.52     -6.75    1.77  AmmH3
  redoxO2(g)       -5.15     -8.04   -2.89  Ozero2
  redoxPyrite       0.00    -18.48  -18.48  FerrousSulfide2
  redoxSiderite    -3.34    -14.23  -10.89  FerrousCO3
  redoxSulfur     -10.01     -5.13    4.88  Sulfide
  redoxVivianite   -6.74    -42.74  -36.00  Ferrous3(PO4)2:8H2O

**For a gas, SI = log10(fugacity). Fugacity = pressure * phi / 1 atm.
  For ideal gases, phi = 1.

Reaction step 2.

Using solution 1.	
Using exchange 1.	Exchange assemblage after simulation 3.
Using surface 1.	
Using pure phase assemblage 1.	
Using gas phase 1.	fixed volume gas phase
Using kinetics 1.	Decomposition  

Kinetics 1.	Decomposition  

	Time step: 1 seconds  (Incremented time: 2 seconds)

	Rate name       Delta Moles Total Moles   Reactant        Coefficient

	BA                6.447e-02   7.061e-01   CH2O                      0
	OAC               2.861e-02   7.448e-02   CH2O                      0
	Aero              3.700e-07   1.011e+00   CH2O                      0
	                                          HCO3                  -1.44
	                                          Ozero2                 1.44
	SulR              1.966e-05   1.000e+00   CH2O                      0
	                                          HCO3                     -9
	                                          HSulfide-              -4.5
	                                          SulfateO4-2             4.5
	Meth             -0.000e+00   1.000e+00   CH2O                      0
	                                          HCO3                  20.24
	                                          MethaneH4            -20.24
	POM              -1.405e-01   4.425e+00   CH2O                      0
	MOM               7.302e-02   1.605e+01   CH2O                      0
	DOM              -1.438e-01   6.911e-02   CH2O                      0
	QOM              -5.426e-03   1.753e+00   CH2O                      0
	EP                6.258e-04   5.316e-02   CH2O                      0
	EM                6.258e-04   5.316e-02   CH2O                      0
	respiration       1.212e-01   4.899e-01   CH2O                      0
	Tot              -1.213e-01   2.299e+01   CH2O                      0
	Salt              9.753e-04   2.960e-03   CH2O                      0
	                                          Ca+2                     -2
	                                          Cl-                     -28
	                                          HCO3                     -3
	                                          K+                       -1
	                                          Mg+2                     -4
	                                          Na+                     -25
	                                          Nitrate                  -5
	                                          Sulfate                  -1
	Caero             4.065e-06   2.586e-02   CH2O                      0
	Csulr             2.096e-04   2.562e-04   CH2O                      0
	Cmeth            -0.000e+00   0.000e+00   CH2O                      0

-----------------------------------Gas phase-----------------------------------

Total pressure:  0.01      atmospheres 
    Gas volume:   9.00e-01 liters
  Molar volume:   2.17e+03 liters/mole

                                                        Moles in gas
                                            ----------------------------------
Component                log P           P     Initial       Final       Delta

redoxCH4(g)              -3.41   3.894e-04   1.432e-05   1.432e-05   4.527e-09
redoxCO2(g)              -1.96   1.089e-02   3.477e-04   4.007e-04   5.294e-05
redoxO2(g)               -6.88   1.306e-07   2.615e-07   4.806e-09  -2.567e-07

-------------------------------Phase assemblage--------------------------------

                                                      Moles in assemblage
Phase               SI  log IAP  log K(T, P)   Initial       Final       Delta

Hydroxyapatite    0.00    -3.42     -3.42    3.763e-04   4.444e-04   6.806e-05
redoxCalcite     -1.51    -9.99     -8.48    0.000e+00           0   0.000e+00
redoxFe(OH)3(a)   -0.00     4.89      4.89    2.005e+00   2.005e+00   4.625e-08
redoxFeS(ppt)    -2.28    -6.19     -3.92    0.000e+00           0   0.000e+00
redoxPyrite       0.00   -18.48    -18.48    1.428e-03   1.429e-03   9.527e-07

------------------------------Surface composition------------------------------

Diffuse Double Layer Surface-Complexation Model

H             
	 -2.449e-09  Surface + diffuse layer charge, eq
	 -6.003e-01  Surface charge, eq
	 -2.119e-02  sigma, C/m²
	 -7.483e-02  psi, V
	  2.913e+00  -F*psi/RT
	  1.841e+01  exp(-F*psi/RT)
	  3.417e+04  specific area, m²/g
	  2.734e+06  m² for   8.000e+01 g

	Water in diffuse layer: 2.734e+01 kg, 94.2% of total DDL-water.

	Total moles in diffuse layer (excluding water), Donnan calculation.
	Donnan Layer potential, psi_DL = -2.037e-02 V.
	Boltzmann factor, exp(-psi_DL * F / RT) = 2.210e+00 (= c_DL / c_free if z is +1).

	Element       	     Moles
	Alanine       	  1.3922e-04
	Amm           	  6.4243e-03
	C             	  1.8488e-02
	Ca            	  2.1850e-01
	Cl            	  4.3480e-02
	Cysteine      	  1.4034e-04
	Ferric        	  3.8313e-06
	Ferrous       	  1.5543e-05
	Glutamine     	  1.3909e-04
	Glycine       	  3.3435e-04
	H             	  8.9796e-02
	K             	  5.0243e-03
	Methane       	  1.4667e-05
	Mg            	  9.3973e-02
	Na            	  2.9570e-02
	Nitrate       	  7.6117e-03
	O             	  7.8936e-02
	Ozero         	  9.1352e-09
	P             	  1.2997e-03
	Sulfate       	  1.3871e-03
	Sulfide       	  2.0167e-04
	Threonine     	  1.3909e-04
	Tyrosine      	  1.3909e-04

H_a           
	  3.837e-02  moles
	                                   Mole                     Log
	Species               Moles    Fraction    Molality    Molality

	H_a-              3.788e-02       0.987   2.008e-02      -1.697
	H_aCa+            3.569e-04       0.009   1.892e-04      -3.723
	H_aMg+            1.225e-04       0.003   6.493e-05      -4.188
	H_aH              7.961e-06       0.000   4.220e-06      -5.375

H_ab          
	  6.378e-02  moles
	                                   Mole                     Log
	Species               Moles    Fraction    Molality    Molality

	H_ab-2            6.337e-02       0.994   3.359e-02      -1.474
	H_abCa            1.888e-04       0.003   1.001e-04      -4.000
	H_abH-            1.715e-04       0.003   9.093e-05      -4.041
	H_abMg            5.147e-05       0.001   2.728e-05      -4.564
	H_abH2            3.605e-08       0.000   1.911e-08      -7.719

H_ad          
	  6.378e-02  moles
	                                   Mole                     Log
	Species               Moles    Fraction    Molality    Molality

	H_ad-2            3.032e-02       0.475   1.607e-02      -1.794
	H_adCa            1.534e-02       0.241   8.131e-03      -2.090
	H_adH-            1.394e-02       0.219   7.388e-03      -2.131
	H_adMg            4.182e-03       0.066   2.217e-03      -2.654
	H_adH2            2.929e-06       0.000   1.553e-06      -5.809

H_af          
	  6.378e-02  moles
	                                   Mole                     Log
	Species               Moles    Fraction    Molality    Molality

	H_afH-            5.805e-02       0.910   3.077e-02      -1.512
	H_afCa            5.694e-03       0.089   3.018e-03      -2.520
	H_af-2            2.048e-05       0.000   1.086e-05      -4.964
	H_afH2            1.220e-05       0.000   6.466e-06      -5.189
	H_afMg            2.636e-06       0.000   1.397e-06      -5.855

H_ah          
	  6.378e-02  moles
	                                   Mole                     Log
	Species               Moles    Fraction    Molality    Molality

	H_ahH-            6.375e-02       1.000   3.379e-02      -1.471
	H_ahH2            1.340e-05       0.000   7.102e-06      -5.149
	H_ahCa            1.112e-05       0.000   5.895e-06      -5.230
	H_ahMg            2.895e-06       0.000   1.535e-06      -5.814
[...]
	Species               Moles    Fraction    Molality    Molality

	H_fH              1.890e-02       0.985   1.013e-02      -1.994
	H_fCa+            1.843e-04       0.010   9.874e-05      -4.006
	H_fMg+            6.494e-05       0.003   3.479e-05      -4.459
	H_f-              3.725e-05       0.002   1.996e-05      -4.700

H_g           
	  1.919e-02  moles
	                                   Mole                     Log
	Species               Moles    Fraction    Molality    Molality

	H_gH              1.894e-02       0.987   1.015e-02      -1.994
	H_gCa+            1.846e-04       0.010   9.893e-05      -4.005
	H_gMg+            6.506e-05       0.003   3.486e-05      -4.458
	H_g-              5.394e-07       0.000   2.890e-07      -6.539

H_h           
	  1.919e-02  moles
	                                   Mole                     Log
	Species               Moles    Fraction    Molality    Molality

	H_hH              1.894e-02       0.987   1.015e-02      -1.994
	H_hCa+            1.846e-04       0.010   9.893e-05      -4.005
	H_hMg+            6.506e-05       0.003   3.486e-05      -4.458
	H_h-              7.797e-09       0.000   4.178e-09      -8.379

Hfo           
	 -2.312e-14  Surface + diffuse layer charge, eq
	  1.099e-04  Surface charge, eq
	  6.310e-05  sigma, C/m²
	  8.379e-05  psi, V
	 -3.261e-03  -F*psi/RT
	  9.967e-01  exp(-F*psi/RT)
	  6.000e+02  specific area, m²/g
	  1.680e+05  m² for   2.800e+02 g

	Water in diffuse layer: 1.680e+00 kg,  5.8% of total DDL-water.

	Total moles in diffuse layer (excluding water), Donnan calculation.
	Donnan Layer potential, psi_DL =  7.712e-06 V.
	Boltzmann factor, exp(-psi_DL * F / RT) = 9.997e-01 (= c_DL / c_free if z is +1).

	Element       	     Moles
	Alanine       	  1.5105e-05
	Amm           	  5.4781e-04
	C             	  8.9043e-03
	Ca            	  3.5631e-02
	Cl            	  1.0548e-01
	Cysteine      	  1.5152e-05
	Ferric        	  1.3780e-07
	Ferrous       	  2.9446e-08
	Glutamine     	  1.5100e-05
	Glycine       	  2.5892e-05
	H             	  1.5280e-01
	K             	  1.1550e-03
	Methane       	  2.3429e-03
	Mg            	  1.6234e-02
	Na            	  2.7461e-02
	Nitrate       	  1.8824e-02
	O             	  8.2997e-02
	Ozero         	  9.9033e-12
	P             	  1.2861e-05
	Sulfate       	  6.0236e-04
	Sulfide       	  2.9057e-03
	Threonine     	  1.5100e-05
	Tyrosine      	  1.5100e-05

Hfo_s         
	  5.000e-06  moles
	                                   Mole                     Log
	Species               Moles    Fraction    Molality    Molality

	Hfo_sOHCa+2       4.956e-06       0.991   2.655e-06      -5.576
	Hfo_sOH2+         3.717e-08       0.007   1.992e-08      -7.701
	Hfo_sOH           6.742e-09       0.001   3.612e-09      -8.442
	Hfo_sO-           2.801e-11       0.000   1.501e-11     -10.824
	Hfo_sOFerrous+    2.320e-13       0.000   1.243e-13     -12.906

Hfo_w         
	  2.000e-04  moles
	                                   Mole                     Log
	Species               Moles    Fraction    Molality    Molality

	Hfo_wOH2+         1.275e-04       0.637   6.830e-05      -4.166
	Hfo_wHPO4-        3.129e-05       0.156   1.676e-05      -4.776
	Hfo_wOH           2.312e-05       0.116   1.239e-05      -4.907
	Hfo_wOMg+         7.690e-06       0.038   4.120e-06      -5.385
	Hfo_wH2PO4        7.027e-06       0.035   3.765e-06      -5.424
	Hfo_wPO4-2        2.365e-06       0.012   1.267e-06      -5.897
	Hfo_wOCa+         9.097e-07       0.005   4.874e-07      -6.312
	Hfo_wO-           9.606e-08       0.000   5.147e-08      -7.288
	Hfo_wSulfateO4-   2.712e-08       0.000   1.453e-08      -7.838
	Hfo_wOHSulfateO4-2   9.788e-09       0.000   5.244e-09      -8.280
	Hfo_wOFerrous+    7.423e-12       0.000   3.977e-12     -11.400
	Hfo_wOFerrousOH   7.046e-14       0.000   3.775e-14     -13.423

-----------------------------Exchange composition------------------------------

X                1.600e+01 mol

	                               Equiv-    Equivalent      Log 
	Species             Moles      alents      Fraction     Gamma

	CaX2              4.629e+00   9.257e+00   5.786e-01    -0.000
	MgX2              2.770e+00   5.540e+00   3.462e-01    -0.000
	NaX               1.095e+00   1.095e+00   6.844e-02    -0.000
	KX                7.122e-02   7.122e-02   4.451e-03    -0.000
	AmmH4X            3.680e-02   3.680e-02   2.300e-03    -0.000
	HX                2.977e-04   2.977e-04   1.860e-05    -0.085
	FerrousX2         1.429e-07   2.857e-07   1.786e-08    -0.408

-----------------------------Solution composition------------------------------

	Elements           Molality       Moles

	Alanine           8.986e-06   1.677e-05
	Amm               3.262e-04   6.088e-04
	C                 5.299e-03   9.891e-03
	Ca                2.122e-02   3.961e-02
	Cl                6.277e-02   1.171e-01
	Cysteine          9.014e-06   1.682e-05
	Ferric            8.204e-08   1.531e-07
	Ferrous           1.753e-08   3.271e-08
	Glutamine         8.983e-06   1.677e-05
	Glycine           1.541e-05   2.876e-05
	K                 6.877e-04   1.284e-03
	Methane           1.395e-03   2.603e-03
	Mg                9.669e-03   1.805e-02
	Na                1.635e-02   3.052e-02
	Nitrate           1.120e-02   2.091e-02
	Ozero             5.895e-12   1.100e-11
	P                 7.654e-06   1.429e-05
	Sulfate           3.584e-04   6.690e-04
	Sulfide           1.729e-03   3.228e-03
	Threonine         8.983e-06   1.677e-05
	Tyrosine          8.983e-06   1.677e-05

----------------------------Description of solution----------------------------

                                       pH  =   6.547      Charge balance
                                       pe  =  -7.422      Adjusted to redox equilibrium
      Specific Conductance (µS/cm,  25°C)  = 7930
                        Activity of water  =   0.997
                 Ionic strength (mol/kgw)  =   1.088e-01
                       Mass of water (kg)  =   1.866e+00
                 Total alkalinity (eq/kg)  =   4.408e-03
                       Total CO2 (mol/kg)  =   5.299e-03
                         Temperature (°C)  =  25.00
                           Pressure (atm)  =  1.08
                  Electrical balance (eq)  =  -1.650e-07
 Percent error, 100*(Cat-|An|)/(Cat+|An|)  =  -0.00
                               Iterations  = 248
                                  Total H  = 2.073652e+02
                                  Total O  = 1.036899e+02

----------------------------Distribution of species----------------------------

                                               Log       Log       Log    mole V
   Species          Molality    Activity  Molality  Activity     Gamma   cm³/mol

   H+              3.452e-07   2.837e-07    -6.462    -6.547    -0.085      0.00
   OH-             4.660e-08   3.519e-08    -7.332    -7.454    -0.122     (0)  
   H2O             5.551e+01   9.971e-01     1.744    -0.001     0.000     18.07
Alanine       8.986e-06
   Alanine-2       8.984e-06   3.266e-06    -5.047    -5.486    -0.439     (0)  
   H2(Alanine)     1.900e-09   1.949e-09    -8.721    -8.710     0.011     (0)  
   H(Alanine)-     2.671e-10   2.074e-10    -9.573    -9.683    -0.110     (0)  
Amm           3.262e-04
   AmmH4+          3.254e-04   2.399e-04    -3.488    -3.620    -0.132     (0)  
   AmmH3           4.701e-07   4.820e-07    -6.328    -6.317     0.011     (0)  
   AmmH4SulfateO4-   2.715e-07   2.109e-07    -6.566    -6.676    -0.110     (0)  
C(4)          5.299e-03
   HCO3-           3.227e-03   2.527e-03    -2.491    -2.597    -0.106     (0)  
   CO2             1.577e-03   1.617e-03    -2.802    -2.791     0.011     (0)  
   CaHCO3+         3.264e-04   2.557e-04    -3.486    -3.592    -0.106     (0)  
   MgHCO3+         1.435e-04   1.115e-04    -3.843    -3.953    -0.110     (0)  
   NaHCO3          1.760e-05   1.805e-05    -4.754    -4.744     0.011     (0)  
   CaCO3           5.427e-06   5.565e-06    -5.265    -5.255     0.011     (0)  
   MgCO3           1.465e-06   1.503e-06    -5.834    -5.823     0.011     (0)  
   CO3-2           1.110e-06   4.178e-07    -5.955    -6.379    -0.425     (0)  
   NaCO3-          1.272e-07   9.879e-08    -6.895    -7.005    -0.110     (0)  
   FerrousHCO3+    2.841e-11   2.206e-11   -10.547   -10.656    -0.110     (0)  
   FerrousCO3      8.531e-13   8.747e-13   -12.069   -12.058     0.011     (0)  
Ca            2.122e-02
   Ca+2            2.078e-02   7.928e-03    -1.682    -2.101    -0.418     (0)  
   CaHCO3+         3.264e-04   2.557e-04    -3.486    -3.592    -0.106     (0)  
   CaSulfateO4     1.052e-04   1.079e-04    -3.978    -3.967     0.011     (0)  
   CaCO3           5.427e-06   5.565e-06    -5.265    -5.255     0.011     (0)  
   CaHPO4          1.816e-06   1.862e-06    -5.741    -5.730     0.011     (0)  
   CaH2PO4+        5.114e-07   3.971e-07    -6.291    -6.401    -0.110     (0)  
   CaPO4-          2.000e-08   1.553e-08    -7.699    -7.809    -0.110     (0)  
   CaOH+           5.956e-09   4.625e-09    -8.225    -8.335    -0.110     (0)  
   CaHSulfateO4+   2.310e-10   1.793e-10    -9.636    -9.746    -0.110     (0)  
Cl            6.277e-02
   Cl-             6.277e-02   4.758e-02    -1.202    -1.323    -0.120     (0)  
   FerrousCl+      7.381e-12   5.732e-12   -11.132   -11.242    -0.110     (0)  
   FerricCl+2      7.080e-15   2.574e-15   -14.150   -14.589    -0.439     (0)  
   FerricCl2+      7.044e-16   5.470e-16   -15.152   -15.262    -0.110     (0)  
   FerricCl3       2.538e-18   2.603e-18   -17.595   -17.585     0.011     (0)  
Cysteine      9.014e-06
   Cysteine-2      8.998e-06   3.271e-06    -5.046    -5.485    -0.439     (0)  
   H2(Cysteine)    1.547e-08   1.586e-08    -7.810    -7.800     0.011     (0)  
   H(Cysteine)-    6.130e-11   4.760e-11   -10.213   -10.322    -0.110     (0)  
Ferric        8.204e-08
   Ferric(OH)2+    6.094e-08   4.732e-08    -7.215    -7.325    -0.110     (0)  
   Ferric(OH)3     2.090e-08   2.143e-08    -7.680    -7.669     0.011     (0)  
   FerricOH+2      1.118e-10   4.066e-11    -9.951   -10.391    -0.439     (0)  
   Ferric(OH)4-    8.847e-11   6.870e-11   -10.053   -10.163    -0.110     (0)  
   Ferric+3        1.046e-14   1.791e-15   -13.980   -14.747    -0.767     (0)  
   FerricCl+2      7.080e-15   2.574e-15   -14.150   -14.589    -0.439     (0)  
   FerricH2PO4+2   2.596e-15   9.439e-16   -14.586   -15.025    -0.439     (0)  
   FerricSulfateO4+   1.726e-15   1.340e-15   -14.763   -14.873    -0.110     (0)  
   FerricCl2+      7.044e-16   5.470e-16   -15.152   -15.262    -0.110     (0)  
   FerricHPO4+     2.660e-16   2.066e-16   -15.575   -15.685    -0.110     (0)  
   Ferric(SulfateO4)2-   2.575e-18   2.000e-18   -17.589   -17.699    -0.110     (0)  
   Ferric2(OH)2+4   2.546e-18   4.449e-20   -17.594   -19.352    -1.758     (0)  
   FerricCl3       2.538e-18   2.603e-18   -17.595   -17.585     0.011     (0)  
   FerricHSulfateO4+2   2.800e-21   1.018e-21   -20.553   -20.992    -0.439     (0)  
   Ferric3(OH)4+5   2.453e-22   4.399e-25   -21.610   -24.357    -2.746     (0)  
Ferrous       1.753e-08
   Ferrous(HSulfide)2   1.619e-08   1.660e-08    -7.791    -7.780     0.011     (0)  
   Ferrous(HSulfide)3-   1.076e-09   8.352e-10    -8.968    -9.078    -0.110     (0)  
   Ferrous+2       2.232e-10   8.727e-11    -9.651   -10.059    -0.408     (0)  
   FerrousHCO3+    2.841e-11   2.206e-11   -10.547   -10.656    -0.110     (0)  
   FerrousCl+      7.381e-12   5.732e-12   -11.132   -11.242    -0.110     (0)  
   FerrousSulfateO4   1.032e-12   1.059e-12   -11.986   -11.975     0.011     (0)  
   FerrousCO3      8.531e-13   8.747e-13   -12.069   -12.058     0.011     (0)  
   FerrousHPO4     1.452e-13   1.489e-13   -12.838   -12.827     0.011     (0)  
   FerrousOH+      1.249e-13   9.701e-14   -12.903   -13.013    -0.110     (0)  
   FerrousH2PO4+   1.103e-13   8.563e-14   -12.958   -13.067    -0.110     (0)  
   FerrousHSulfateO4+   2.542e-18   1.974e-18   -17.595   -17.705    -0.110     (0)  
Glutamine     8.983e-06
   Glutamine-2     8.982e-06   3.266e-06    -5.047    -5.486    -0.439     (0)  
   H2(Glutamine)   3.458e-10   3.545e-10    -9.461    -9.450     0.011     (0)  
   H(Glutamine)-   1.765e-10   1.370e-10    -9.753    -9.863    -0.110     (0)  
Glycine       1.541e-05
   Glycine-        1.540e-05   1.196e-05    -4.812    -4.922    -0.110     (0)  
   H2(Glycine)+    4.935e-09   3.832e-09    -8.307    -8.417    -0.110     (0)  
   H(Glycine)      7.239e-10   7.423e-10    -9.140    -9.129     0.011     (0)  
H(0)          7.750e-02
   H2              3.875e-02   3.973e-02    -1.412    -1.401     0.011     (0)  
K             6.877e-04
   K+              6.874e-04   5.210e-04    -3.163    -3.283    -0.120     (0)  
   KSulfateO4-     3.216e-07   2.497e-07    -6.493    -6.603    -0.110     (0)  
   KHPO4-          5.605e-10   4.353e-10    -9.251    -9.361    -0.110     (0)  
   KOH             6.193e-12   6.350e-12   -11.208   -11.197     0.011     (0)  
Methane       1.395e-03
   MethaneH4       1.395e-03   1.430e-03    -2.856    -2.845     0.011     (0)  
Mg            9.669e-03
   Mg+2            9.464e-03   3.769e-03    -2.024    -2.424    -0.400     (0)  
   MgHCO3+         1.435e-04   1.115e-04    -3.843    -3.953    -0.110     (0)  
   MgSulfateO4     5.878e-05   6.027e-05    -4.231    -4.220     0.011     (0)  
   MgCO3           1.465e-06   1.503e-06    -5.834    -5.823     0.011     (0)  
   MgHPO4          1.167e-06   1.197e-06    -5.933    -5.922     0.011     (0)  
   MgH2PO4+        3.096e-07   2.404e-07    -6.509    -6.619    -0.110     (0)  
   MgOH+           6.194e-08   4.810e-08    -7.208    -7.318    -0.110     (0)  
   MgPO4-          1.283e-08   9.959e-09    -7.892    -8.002    -0.110     (0)  
Na            1.635e-02
   Na+             1.633e-02   1.270e-02    -1.787    -1.896    -0.109     (0)  
   NaHCO3          1.760e-05   1.805e-05    -4.754    -4.744     0.011     (0)  
   NaSulfateO4-    5.591e-06   4.341e-06    -5.253    -5.362    -0.110     (0)  
   NaCO3-          1.272e-07   9.879e-08    -6.895    -7.005    -0.110     (0)  
   NaHPO4-         1.366e-08   1.061e-08    -7.865    -7.974    -0.110     (0)  
   NaOH            2.876e-10   2.949e-10    -9.541    -9.530     0.011     (0)  
Nitrate       1.120e-02
   NitrateO3-      1.120e-02   8.698e-03    -1.951    -2.061    -0.110     (0)  
O(0)          0.000e+00
   O2              0.000e+00   0.000e+00   -89.592   -89.581     0.011     (0)  
Ozero         5.895e-12
   Ozero2          2.947e-12   3.022e-12   -11.531   -11.520     0.011     (0)  
P             7.654e-06
   H2PO4-          2.540e-06   1.958e-06    -5.595    -5.708    -0.113     (0)  
   CaHPO4          1.816e-06   1.862e-06    -5.741    -5.730     0.011     (0)  
   HPO4-2          1.263e-06   4.284e-07    -5.899    -6.368    -0.469     (0)  
   MgHPO4          1.167e-06   1.197e-06    -5.933    -5.922     0.011     (0)  
   CaH2PO4+        5.114e-07   3.971e-07    -6.291    -6.401    -0.110     (0)  
   MgH2PO4+        3.096e-07   2.404e-07    -6.509    -6.619    -0.110     (0)  
   CaPO4-          2.000e-08   1.553e-08    -7.699    -7.809    -0.110     (0)  
   NaHPO4-         1.366e-08   1.061e-08    -7.865    -7.974    -0.110     (0)  
   MgPO4-          1.283e-08   9.959e-09    -7.892    -8.002    -0.110     (0)  
   KHPO4-          5.605e-10   4.353e-10    -9.251    -9.361    -0.110     (0)  
   PO4-3           7.749e-12   6.808e-13   -11.111   -12.167    -1.056     (0)  
   FerrousHPO4     1.452e-13   1.489e-13   -12.838   -12.827     0.011     (0)  
   FerrousH2PO4+   1.103e-13   8.563e-14   -12.958   -13.067    -0.110     (0)  
   FerricH2PO4+2   2.596e-15   9.439e-16   -14.586   -15.025    -0.439     (0)  
   FerricHPO4+     2.660e-16   2.066e-16   -15.575   -15.685    -0.110     (0)  
Sulfate       3.584e-04
   SulfateO4-2     1.882e-04   6.822e-05    -3.725    -4.166    -0.441     (0)  
   CaSulfateO4     1.052e-04   1.079e-04    -3.978    -3.967     0.011     (0)  
   MgSulfateO4     5.878e-05   6.027e-05    -4.231    -4.220     0.011     (0)  
   NaSulfateO4-    5.591e-06   4.341e-06    -5.253    -5.362    -0.110     (0)  
   KSulfateO4-     3.216e-07   2.497e-07    -6.493    -6.603    -0.110     (0)  
   AmmH4SulfateO4-   2.715e-07   2.109e-07    -6.566    -6.676    -0.110     (0)  
   HSulfateO4-     2.423e-09   1.881e-09    -8.616    -8.725    -0.110     (0)  
   CaHSulfateO4+   2.310e-10   1.793e-10    -9.636    -9.746    -0.110     (0)  
   FerrousSulfateO4   1.032e-12   1.059e-12   -11.986   -11.975     0.011     (0)  
   FerricSulfateO4+   1.726e-15   1.340e-15   -14.763   -14.873    -0.110     (0)  
   Ferric(SulfateO4)2-   2.575e-18   2.000e-18   -17.589   -17.699    -0.110     (0)  
   FerrousHSulfateO4+   2.542e-18   1.974e-18   -17.595   -17.705    -0.110     (0)  
   FerricHSulfateO4+2   2.800e-21   1.018e-21   -20.553   -20.992    -0.439     (0)  
Sulfide       1.729e-03
   H2Sulfide       1.118e-03   1.146e-03    -2.952    -2.941     0.011     (0)  
   HSulfide-       6.118e-04   4.620e-04    -3.213    -3.335    -0.122     (0)  
   Ferrous(HSulfide)2   1.619e-08   1.660e-08    -7.791    -7.780     0.011     (0)  
   Ferrous(HSulfide)3-   1.076e-09   8.352e-10    -8.968    -9.078    -0.110     (0)  
   Sulfide-2       5.373e-10   1.967e-10    -9.270    -9.706    -0.436     (0)  
Threonine     8.983e-06
   Threonine-2     8.982e-06   3.266e-06    -5.047    -5.486    -0.439     (0)  
   H2(Threonine)   3.379e-10   3.465e-10    -9.471    -9.460     0.011     (0)  
   H(Threonine)-   1.685e-10   1.309e-10    -9.773    -9.883    -0.110     (0)  
Tyrosine      8.983e-06
   Tyrosine-2      8.982e-06   3.266e-06    -5.047    -5.486    -0.439     (0)  
   H2(Tyrosine)    3.302e-10   3.386e-10    -9.481    -9.470     0.011     (0)  
   H(Tyrosine)-    1.891e-10   1.468e-10    -9.723    -9.833    -0.110     (0)  

------------------------------Saturation indices-------------------------------

  Phase               SI** log IAP   log K(298 K,   1 atm)

  FixpH            -6.55     -6.55    0.00  H+
  H2(g)             1.75     -1.40   -3.15  H2
  H2O(g)           -1.51     -0.00    1.51  H2O
  Halite           -4.80     -3.22    1.58  NaCl
  Hydroxyapatite   -0.00     -3.42   -3.42  Ca5(PO4)3OH
  ORM             743.35   -135.88 -879.23  C5H4O2Amm
  redoxAnhydrite   -1.91     -6.27   -4.36  CaSulfateO4
  redoxAragonite   -0.14     -8.48   -8.34  CaCO3
  redoxCalcite      0.00     -8.48   -8.48  CaCO3
  redoxCH4(g)       0.02     -2.84   -2.86  MethaneH4
  redoxCO2(g)      -1.32     -2.79   -1.47  CO2
  redoxDolomite    -0.19    -17.28  -17.09  CaMg(CO3)2
  redoxFe(OH)3(a)  -0.00      4.89    4.89  Ferric(OH)3
  redoxFeS(ppt)    -2.93     -6.85   -3.92  FerrousSulfide
  redoxGoethite     5.89      4.89   -1.00  FerricOOH
  redoxGypsum      -1.69     -6.27   -4.58  CaSulfateO4:2H2O
  redoxH2S(g)      -1.94     -2.94   -1.00  H2Sulfide
  redoxHematite    13.79      9.79   -4.01  Ferric2O3
  redoxJarosite-K  -7.37    -16.58   -9.21  KFerric3(SulfateO4)2(OH)6
  redoxMackinawite  -2.20     -6.85   -4.65  FerrousSulfide
  redoxMelanterite -12.02    -14.23   -2.21  FerrousSulfateO4:7H2O
  redoxNH3(g)      -8.09     -6.32    1.77  AmmH3
  redoxO2(g)       -8.63    -11.52   -2.89  Ozero2
  redoxPyrite       0.00    -18.48  -18.48  FerrousSulfide2
  redoxSiderite    -5.55    -16.44  -10.89  FerrousCO3
  redoxSulfur      -9.57     -4.69    4.88  Sulfide
  redoxVivianite  -18.52    -54.52  -36.00  Ferrous3(PO4)2:8H2O

**For a gas, SI = log10(fugacity). Fugacity = pressure * phi / 1 atm.
  For ideal gases, phi = 1.

------------------
End of simulation.
------------------

------------------------------------
Reading input data for simulation 4.
------------------------------------

---------------------------------
End of Run after 98.3751 Seconds.
---------------------------------

