   Input file: closed_redox_sw5.phrq
  Output file: closed_redox_sw5.phrq.out
Database file: ../database/redox.dat

------------------
Reading data base.
------------------

	SOLUTION_MASTER_SPECIES
	SOLUTION_SPECIES
	PHASES
	EXCHANGE_MASTER_SPECIES
	EXCHANGE_SPECIES
	SURFACE_MASTER_SPECIES
	SURFACE_SPECIES
	RATES
	END
------------------------------------
Reading input data for simulation 1.
------------------------------------

	DATABASE ../database/redox.dat
	TITLE  MEND and redox coupling
	CALCULATE_VALUES
	SC_T25
	 start
	 10 sc25 = SC/(1+0.021*(temperature-25))   #in us/cm
	 20 SAVE sc25
	 end
	fsl1    ##more sensitive (green)
	 start
	 10 fsl1 = 1 / (1.0 + exp(1.68 * (log10(CALC_VALUE("SC_T25")/1000)+0.26))) #log(ds/m)
	 40 SAVE fsl1
	 end
	fsl2     ##medium (purple)
	 start
	 10 fsl2 = 1 / (1.0 + exp(2.28 * (log10(CALC_VALUE("SC_T25")/1000)-0.60)))  #log(ds/m)
	 40 SAVE fsl2
	 end
	fsl3     ##medium (red)
	 start
	 10 fsl3 = 1 / (1.0 + exp(2.23 * (log10(CALC_VALUE("SC_T25")/1000)-1.11)))  #log(ds/m)
	 40 SAVE fsl3
	 end
	fsl4    ##more resistant (black)
	 start
	 10 fsl4 = 1 / (1.0 + exp(4.03 * (log10(CALC_VALUE("SC_T25")/1000)-1.78)))  #log(ds/m)
	 40 SAVE fsl4
	 end
	SOLUTION 1    
	units umol/L        #3.774L total volume  ##based on clay fresh system
	pH    7  charge
	temperature 	 25
	water         1.887   #default is 1 kg
	P           5
	Amm         38
	Na          114
	Ca          183
	Cl          133 
	Sulfate     4 
	K           28
	Mg          79
	C(4)        9  
	Nitrate        0
	Ferric       50
	Alanine      52
	Cysteine     52
	Glycine      52
	Glutamine    52
	Threonine    52
	Tyrosine     52
	Ozero        600    redoxO2(g) -0.7
	Methane      1
	Sulfide      0.1
	  SAVE SOLUTION 1
	END
-----
TITLE
-----

  MEND and redox coupling

-------------------------------------------
Beginning of initial solution calculations.
-------------------------------------------

Initial solution 1.	

-----------------------------Solution composition------------------------------

	Elements           Molality       Moles

	Alanine           5.200e-05   9.813e-05
	Amm               3.800e-05   7.171e-05
	C(4)              9.001e-06   1.698e-05
	Ca                1.830e-04   3.453e-04
	Cl                1.330e-04   2.510e-04
	Cysteine          5.200e-05   9.813e-05
	Ferric            5.000e-05   9.436e-05
	Glutamine         5.200e-05   9.813e-05
	Glycine           5.200e-05   9.813e-05
	K                 2.800e-05   5.284e-05
	Methane           1.000e-06   1.887e-06
	Mg                7.901e-05   1.491e-04
	Na                1.140e-04   2.151e-04
	Ozero             5.111e-04   9.645e-04  Equilibrium with redoxO2(g)
	P                 5.000e-06   9.436e-06
	Sulfate           4.000e-06   7.549e-06
	Sulfide           1.000e-07   1.887e-07
	Threonine         5.200e-05   9.813e-05
	Tyrosine          5.200e-05   9.813e-05

----------------------------Description of solution----------------------------

                                       pH  =   6.951      Charge balance
                                       pe  =   4.000    
      Specific Conductance (µS/cm,  25°C)  = 49
                        Activity of water  =   1.000
                 Ionic strength (mol/kgw)  =   1.254e-03
                       Mass of water (kg)  =   1.887e+00
                 Total alkalinity (eq/kg)  =   3.480e-04
                       Total CO2 (mol/kg)  =   9.001e-06
                         Temperature (°C)  =  25.00
                  Electrical balance (eq)  =   1.862e-17
 Percent error, 100*(Cat-|An|)/(Cat+|An|)  =   0.00
                               Iterations  =   8
                                  Total H  = 2.094810e+02
                                  Total O  = 1.047406e+02

----------------------------Distribution of species----------------------------

                                               Log       Log       Log    mole V
   Species          Molality    Activity  Molality  Activity     Gamma   cm³/mol

   H+              1.163e-07   1.120e-07    -6.935    -6.951    -0.016      0.00
   OH-             9.305e-08   8.941e-08    -7.031    -7.049    -0.017     (0)  
   H2O             5.551e+01   1.000e+00     1.744    -0.000     0.000     18.07
Alanine       5.200e-05
   Alanine-2       5.200e-05   4.436e-05    -4.284    -4.353    -0.069     (0)  
   H2(Alanine)     4.121e-09   4.123e-09    -8.385    -8.385     0.000     (0)  
   H(Alanine)-     1.157e-09   1.112e-09    -8.937    -8.954    -0.017     (0)  
Amm           3.800e-05
   AmmH4+          3.782e-05   3.632e-05    -4.422    -4.440    -0.018     (0)  
   AmmH3           1.848e-07   1.848e-07    -6.733    -6.733     0.000     (0)  
   AmmH4SulfateO4-   1.598e-09   1.536e-09    -8.796    -8.814    -0.017     (0)  
C(4)          9.001e-06
   HCO3-           7.227e-06   6.949e-06    -5.141    -5.158    -0.017     (0)  
   CO2             1.749e-06   1.750e-06    -5.757    -5.757     0.000     (0)  
   CaHCO3+         1.441e-08   1.385e-08    -7.841    -7.858    -0.017     (0)  
   MgHCO3+         5.710e-09   5.487e-09    -8.243    -8.261    -0.017     (0)  
   CO3-2           3.404e-09   2.911e-09    -8.468    -8.536    -0.068     (0)  
   CaCO3           7.637e-10   7.639e-10    -9.117    -9.117     0.000     (0)  
   NaHCO3          4.281e-10   4.283e-10    -9.368    -9.368     0.000     (0)  
   MgCO3           1.874e-10   1.874e-10    -9.727    -9.727     0.000     (0)  
   NaCO3-          6.180e-12   5.940e-12   -11.209   -11.226    -0.017     (0)  
Ca            1.830e-04
   Ca+2            1.827e-04   1.562e-04    -3.738    -3.806    -0.068     (0)  
   CaHPO4          1.339e-07   1.339e-07    -6.873    -6.873     0.000     (0)  
   CaSulfateO4     1.023e-07   1.023e-07    -6.990    -6.990     0.000     (0)  
   CaHCO3+         1.441e-08   1.385e-08    -7.841    -7.858    -0.017     (0)  
   CaH2PO4+        1.173e-08   1.127e-08    -7.931    -7.948    -0.017     (0)  
   CaPO4-          2.944e-09   2.829e-09    -8.531    -8.548    -0.017     (0)  
   CaCO3           7.637e-10   7.639e-10    -9.117    -9.117     0.000     (0)  
   CaOH+           2.410e-10   2.316e-10    -9.618    -9.635    -0.017     (0)  
   CaHSulfateO4+   6.984e-14   6.712e-14   -13.156   -13.173    -0.017     (0)  
Cl            1.330e-04
   Cl-             1.330e-04   1.278e-04    -3.876    -3.893    -0.017     (0)  
   FerricCl+2      6.028e-16   5.142e-16   -15.220   -15.289    -0.069     (0)  
   FerricCl2+      3.055e-19   2.936e-19   -18.515   -18.532    -0.017     (0)  
   FerricCl3       3.751e-24   3.752e-24   -23.426   -23.426     0.000     (0)  
Cysteine      5.200e-05
   Cysteine-2      5.197e-05   4.433e-05    -4.284    -4.353    -0.069     (0)  
   H2(Cysteine)    3.348e-08   3.349e-08    -7.475    -7.475     0.000     (0)  
   H(Cysteine)-    2.649e-10   2.546e-10    -9.577    -9.594    -0.017     (0)  
Ferric        5.000e-05
   Ferric(OH)3     2.613e-05   2.614e-05    -4.583    -4.583     0.000     (0)  
   Ferric(OH)2+    2.364e-05   2.272e-05    -4.626    -4.644    -0.017     (0)  
   Ferric(OH)4-    2.215e-07   2.129e-07    -6.655    -6.672    -0.017     (0)  
   FerricOH+2      9.006e-09   7.683e-09    -8.045    -8.114    -0.069     (0)  
   Ferric+3        1.870e-13   1.332e-13   -12.728   -12.875    -0.147     (0)  
   FerricH2PO4+2   1.185e-13   1.011e-13   -12.926   -12.995    -0.069     (0)  
   FerricHPO4+     5.833e-14   5.605e-14   -13.234   -13.251    -0.017     (0)  
   FerricSulfateO4+   4.990e-15   4.795e-15   -14.302   -14.319    -0.017     (0)  
   Ferric2(OH)2+4   3.000e-15   1.589e-15   -14.523   -14.799    -0.276     (0)  
   FerricCl+2      6.028e-16   5.142e-16   -15.220   -15.289    -0.069     (0)  
   Ferric3(OH)4+5   2.036e-17   7.541e-18   -16.691   -17.123    -0.431     (0)  
   Ferric(SulfateO4)2-   3.583e-19   3.444e-19   -18.446   -18.463    -0.017     (0)  
   FerricCl2+      3.055e-19   2.936e-19   -18.515   -18.532    -0.017     (0)  
   FerricHSulfateO4+2   1.685e-21   1.438e-21   -20.773   -20.842    -0.069     (0)  
   FerricCl3       3.751e-24   3.752e-24   -23.426   -23.426     0.000     (0)  
Glutamine     5.200e-05
   Glutamine-2     5.200e-05   4.436e-05    -4.284    -4.353    -0.069     (0)  
   H(Glutamine)-   7.645e-10   7.347e-10    -9.117    -9.134    -0.017     (0)  
   H2(Glutamine)   7.500e-10   7.502e-10    -9.125    -9.125     0.000     (0)  
Glycine       5.200e-05
   Glycine-        5.200e-05   4.997e-05    -4.284    -4.301    -0.017     (0)  
   H2(Glycine)+    2.595e-09   2.494e-09    -8.586    -8.603    -0.017     (0)  
   H(Glycine)      1.224e-09   1.224e-09    -8.912    -8.912     0.000     (0)  
H(0)          1.775e-25
   H2              8.873e-26   8.875e-26   -25.052   -25.052     0.000     (0)  
K             2.800e-05
   K+              2.800e-05   2.691e-05    -4.553    -4.570    -0.017     (0)  
   KSulfateO4-     6.457e-10   6.206e-10    -9.190    -9.207    -0.017     (0)  
   KHPO4-          8.533e-11   8.200e-11   -10.069   -10.086    -0.017     (0)  
   KOH             8.329e-13   8.332e-13   -12.079   -12.079     0.000     (0)  
Methane       1.000e-06
   MethaneH4       1.000e-06   1.000e-06    -6.000    -6.000     0.000     (0)  
Mg            7.901e-05
   Mg+2            7.886e-05   6.748e-05    -4.103    -4.171    -0.068     (0)  
   MgHPO4          7.818e-08   7.820e-08    -7.107    -7.107     0.000     (0)  
   MgSulfateO4     5.192e-08   5.193e-08    -7.285    -7.285     0.000     (0)  
   MgH2PO4+        6.450e-09   6.199e-09    -8.190    -8.208    -0.017     (0)  
   MgHCO3+         5.710e-09   5.487e-09    -8.243    -8.261    -0.017     (0)  
   MgOH+           2.277e-09   2.188e-09    -8.643    -8.660    -0.017     (0)  
   MgPO4-          1.715e-09   1.649e-09    -8.766    -8.783    -0.017     (0)  
   MgCO3           1.874e-10   1.874e-10    -9.727    -9.727     0.000     (0)  
Na            1.140e-04
   Na+             1.140e-04   1.096e-04    -3.943    -3.960    -0.017     (0)  
   NaSulfateO4-    1.876e-09   1.803e-09    -8.727    -8.744    -0.017     (0)  
   NaHCO3          4.281e-10   4.283e-10    -9.368    -9.368     0.000     (0)  
   NaHPO4-         3.475e-10   3.340e-10    -9.459    -9.476    -0.017     (0)  
   NaOH            6.464e-12   6.466e-12   -11.189   -11.189     0.000     (0)  
   NaCO3-          6.180e-12   5.940e-12   -11.209   -11.226    -0.017     (0)  
O(0)          0.000e+00
   O2              0.000e+00   0.000e+00   -42.277   -42.276     0.000     (0)  
Ozero         5.111e-04
   Ozero2          2.556e-04   2.556e-04    -3.592    -3.592     0.000     (0)  
P             5.000e-06
   H2PO4-          2.933e-06   2.819e-06    -5.533    -5.550    -0.017     (0)  
   HPO4-2          1.832e-06   1.563e-06    -5.737    -5.806    -0.069     (0)  
   CaHPO4          1.339e-07   1.339e-07    -6.873    -6.873     0.000     (0)  
   MgHPO4          7.818e-08   7.820e-08    -7.107    -7.107     0.000     (0)  
   CaH2PO4+        1.173e-08   1.127e-08    -7.931    -7.948    -0.017     (0)  
   MgH2PO4+        6.450e-09   6.199e-09    -8.190    -8.208    -0.017     (0)  
   CaPO4-          2.944e-09   2.829e-09    -8.531    -8.548    -0.017     (0)  
   MgPO4-          1.715e-09   1.649e-09    -8.766    -8.783    -0.017     (0)  
   NaHPO4-         3.475e-10   3.340e-10    -9.459    -9.476    -0.017     (0)  
   KHPO4-          8.533e-11   8.200e-11   -10.069   -10.086    -0.017     (0)  
   PO4-3           9.000e-12   6.294e-12   -11.046   -11.201    -0.155     (0)  
   FerricH2PO4+2   1.185e-13   1.011e-13   -12.926   -12.995    -0.069     (0)  
   FerricHPO4+     5.833e-14   5.605e-14   -13.234   -13.251    -0.017     (0)  
Sulfate       4.000e-06
   SulfateO4-2     3.842e-06   3.283e-06    -5.415    -5.484    -0.068     (0)  
   CaSulfateO4     1.023e-07   1.023e-07    -6.990    -6.990     0.000     (0)  
   MgSulfateO4     5.192e-08   5.193e-08    -7.285    -7.285     0.000     (0)  
   NaSulfateO4-    1.876e-09   1.803e-09    -8.727    -8.744    -0.017     (0)  
   AmmH4SulfateO4-   1.598e-09   1.536e-09    -8.796    -8.814    -0.017     (0)  
   KSulfateO4-     6.457e-10   6.206e-10    -9.190    -9.207    -0.017     (0)  
   HSulfateO4-     3.718e-11   3.573e-11   -10.430   -10.447    -0.017     (0)  
   CaHSulfateO4+   6.984e-14   6.712e-14   -13.156   -13.173    -0.017     (0)  
   FerricSulfateO4+   4.990e-15   4.795e-15   -14.302   -14.319    -0.017     (0)  
   Ferric(SulfateO4)2-   3.583e-19   3.444e-19   -18.446   -18.463    -0.017     (0)  
   FerricHSulfateO4+2   1.685e-21   1.438e-21   -20.773   -20.842    -0.069     (0)  
Sulfide       1.000e-07
   HSulfide-       5.154e-08   4.952e-08    -7.288    -7.305    -0.017     (0)  
   H2Sulfide       4.847e-08   4.848e-08    -7.315    -7.314     0.000     (0)  
   Sulfide-2       6.251e-14   5.342e-14   -13.204   -13.272    -0.068     (0)  
Threonine     5.200e-05
   Threonine-2     5.200e-05   4.436e-05    -4.284    -4.353    -0.069     (0)  
   H2(Threonine)   7.330e-10   7.332e-10    -9.135    -9.135     0.000     (0)  
   H(Threonine)-   7.301e-10   7.016e-10    -9.137    -9.154    -0.017     (0)  
Tyrosine      5.200e-05
   Tyrosine-2      5.200e-05   4.436e-05    -4.284    -4.353    -0.069     (0)  
   H(Tyrosine)-    8.191e-10   7.872e-10    -9.087    -9.104    -0.017     (0)  
   H2(Tyrosine)    7.163e-10   7.165e-10    -9.145    -9.145     0.000     (0)  

------------------------------Saturation indices-------------------------------

  Phase               SI** log IAP   log K(298 K,   1 atm)

  FixpH            -6.95     -6.95    0.00  H+
  H2(g)           -21.90    -25.05   -3.15  H2
  H2O(g)           -1.51     -0.00    1.51  H2O
  Halite           -9.44     -7.85    1.58  NaCl
  Hydroxyapatite   -5.22     -8.65   -3.42  Ca5(PO4)3OH
  ORM             829.47    -49.76 -879.23  C5H4O2Amm
  redoxAnhydrite   -4.93     -9.29   -4.36  CaSulfateO4
  redoxAragonite   -4.01    -12.34   -8.34  CaCO3
  redoxCalcite     -3.86    -12.34   -8.48  CaCO3
  redoxCH4(g)      -3.14     -6.00   -2.86  MethaneH4
  redoxCO2(g)      -4.29     -5.76   -1.47  CO2
  redoxDolomite    -7.96    -25.05  -17.09  CaMg(CO3)2
  redoxFe(OH)3(a)   3.09      7.98    4.89  Ferric(OH)3
  redoxGoethite     8.98      7.98   -1.00  FerricOOH
  redoxGypsum      -4.71     -9.29   -4.58  CaSulfateO4:2H2O
  redoxH2S(g)      -6.32     -7.31   -1.00  H2Sulfide
  redoxHematite    19.96     15.95   -4.01  Ferric2O3
  redoxJarosite-K  -3.25    -12.46   -9.21  KFerric3(SulfateO4)2(OH)6
  redoxNH3(g)      -8.50     -6.73    1.77  AmmH3
  redoxO2(g)       -0.70     -3.59   -2.89  Ozero2
  redoxSulfur       9.71     14.59    4.88  Sulfide

**For a gas, SI = log10(fugacity). Fugacity = pressure * phi / 1 atm.
  For ideal gases, phi = 1.

------------------
End of simulation.
------------------

------------------------------------
Reading input data for simulation 2.
------------------------------------

	GAS_PHASE 1 fixed volume gas phase
	  fixed_volume
	  volume	   0.9  #(L)  calculate air pore space
	  temperature 	 25.0
	  redoxO2(g)   0.2
	  redoxCH4(g)  0.0
	  redoxCO2(g)  0.000316
	  SAVE GAS_PHASE 1
	END
------------------
End of simulation.
------------------

------------------------------------
Reading input data for simulation 3.
------------------------------------

	USE SOLUTION 1
	USE GAS_PHASE 1
	EXCHANGE_SPECIES
	 X- = X-
	 log_k 0     #semicolon is logical end of line
	 X- + AmmH4+ = AmmH4X
	  log_k  0.25   #define the half-reactions of ion change
	 2X- + Ca+2  = CaX2
	    log_k  0.4    $logK's relative 
	 2X- + Mg+2  = MgX2
	    log_k  0.5
	 X- + Na+  = NaX
	      log_k  0.0
	 X- + K+  = KX
	       log_k  0.2
	EXCHANGE 1   #exchanger in equilibirium 
	  X         16  #exchanger amount in mol
	  equilibrate with solution 1
	  exchange_gammas   true
	EQUILIBRIUM_PHASES 1
	  redoxCalcite      0  0.001     #CaCo3
	  redoxFeS(ppt)     0  0.001     #FeS
	  Hydroxyapatite    0  0.001     #Ca5(PO4)3OH
	  redoxPyrite       0  0.001     #FeS2
	  redoxFe(OH)3(a)   0  2   
	SURFACE 1
	 Hfo_wOH 2e-4  600  280  #site density (per nm2), SSA (m2/g), gram
	 Hfo_sOH 5e-6
	donnan 1e-8   #defuse layer thickness
	  H_a   3.837E-02  3.417E+04     80  ##gram of SOM for exchange
	  H_b   3.837E-02
	 H_c   3.837E-02
	 H_d  3.837E-02
	  H_e   1.919E-02
	 H_f   1.919E-02
	 H_g  1.919E-02
	 H_h  1.919E-02
	  H_ab  6.378E-02
	 H_ad  6.378E-02
	 H_af  6.378E-02
	 H_ah  6.378E-02
	  H_bc  6.378E-02
	 H_be  6.378E-02
	 H_bg  6.378E-05
	 H_cd  6.378E-05
	  H_cf  6.378E-02
	 H_ch  6.378E-02
	 H_de  6.378E-05
	 H_dg  6.378E-05
	 equilibrate with solution 1
	USE SOLUTION 1
	KINETICS  Decomposition  ##in mgC per g soil, redox reaction stoichiometry based on per biomassC
	cvode
	BA
	   m0   0.52
	   formula CH2O 0.0  
	   parms 1.04 0.25 0.001 0.4 0.02  #parm(1)=Vd, parm(2)=Kd, parm(3)=PEP, parm(4)=CUE, parm(5)=kb
	OAC
	   m0  0.001
	   formula CH2O 0.0   
	   parms  0.2  0.25
	Aero
	   formula CH2O 0.0   Ozero2  1.44   HCO3 -1.44  #C 2.44
	   parms  4   0.02  0.02   #Vmax, Koc, Ko2
	SulR
	   formula CH2O 0.0   SulfateO4-2  4.5   HSulfide-  -4.5  HCO3 -9    #C 10
	   parms  0.4   0.3   3   #Vmax, Koc, Kso4
	Meth
	   formula CH2O 0.0     MethaneH4 -20.24  HCO3 20.24   #C 41.48
	   parms  0.25   0.6  0.1   #Vmax, Koc, KI_O2
	POM
	   m0   4.71
	   formula CH2O 0.0  
	   parms 33.8  50  0  0.5   #vp1, kp1, Ip1, gD-fraction of dead BA to D
	MOM
	   m0   15.9
	   formula CH2O 0.0
	   parms 0.2  250 0.5   #vm, km, fD- fraction of decomposed p1/p2 to D
	DOM
	   m0   0.48
	   formula CH2O 0.0
	   parms  0.5  0.25  0
	QOM
	   m0   1.767
	   formula CH2O 0.0
	   parms 0.006 0.5  0.001   #adsorption constant, Qmax, desorption constant
	EP
	   m0   0.052
	   formula CH2O 0.0
	   parms  0.001
	EM
	   m0   0.052
	   formula CH2O 0.0
	   parms  0.001
	respiration
	   m0   0
	   formula CH2O 0.0 
	   parms  0.4
	Tot
	   m0   23.484
	   formula CH2O 0.0
	Salt  ##saltwater ion stoichiometry
	   m0   0.001
	   formula  CH2O 0.0   Cl-  -20  Sulfate  -5   Na+  -25   K+  -1    Ca+2  -2  Mg+2  -4   HCO3  -3  Nitrate -5 
	   parms 0.01  ## mol per gram soil per day
	Caero
	   m0   0
	   formula CH2O 0.0
	Csulr
	   m0   0
	   formula CH2O 0.0
	Cmeth
	   m0   0
	   formula CH2O 0.0
	   steps 100 in 100 steps #day
	  INCREMENTAL_REACTIONS true
	RATES
	BA
	   start
	    10 mDOM= kin("DOM")*0.8
	    20 bio = kin("BA")
	    30 uptake= parm(1)* bio * mDOM/(parm(2)+mDOM)   #parm(1)=Vd, parm(2)=Kd
	    40 put(uptake, 1) #microbil uptake flux                                      
	    50 decay=(1-parm(3)*2)*bio*parm(5)     #parm(3)=pEP=pEM (exoemzyme production rate); 0.1*Vd=biomass decay rate
	    60 put(decay, 2)                                           ##maintenance respiration
	    70 pexo = parm(3)*bio   #exoenzyme production enzyme production rate=0.1*Vd
	    80 put(pexo, 3)                                             ##mortality
	    90 rate = get(1)*parm(4)-get(2)-get(3)-get(3)+get(11)*get(11)/(get(11)+get(12)+get(13))+get(12)*get(12)/(get(11)+get(12)+get(13))+get(13)*get(13)/(get(11)+get(12)+get(13)) #parm(4)=CUE
	    100 save -rate * time 
	   end
	OAC
	   start
	    10 mDOM= kin("DOM")
	    20 rate = parm(1)* mDOM+parm(2)* get(2)-get(11)*2.44*get(11)/(get(11)+get(12)+get(13))-get(12)*10*get(12)/(get(11)+get(12)+get(13))-get(13)*41.48*get(13)/(get(11)+get(12)+get(13))  #C stoichiometry for redox reactions
	    30 put(rate, 14)
	    100 save -rate * time 
	   end
	Aero
	  start
	   10 mDOM= kin("OAC")/12
	   20 bio = kin("BA")/12
	   30 DO= mol("Ozero2")*1000
	   40 donor = mDOM/(parm(2)+mDOM)
	   50 accp = DO/(parm(3)+DO)
	   60 rate = parm(1)* bio * donor * accp
	   70 put(rate, 11)
	   80 final = rate*get(11)/(get(11)+get(12)+get(13))
	  100 save -final* time
	  end
	SulR
	  start
	   10 mDOM= kin("OAC")/12
	   20 bio = 0.6*kin("BA")/12
	   30 DO = mol("Ozero2")*1000
	   40 SO = mol("SulfateO4-2")*1000
	   50 donor = mDOM/(parm(2)+mDOM)
	   60 acc = SO/(parm(3)+SO)
	   70 rate = parm(1)* bio * donor * acc
	   80 put(rate, 12)
	   90 final = rate*get (12)/(get(11)+get(12)+get(13))
	  100 save -final * time
	  end
	Meth
	  start
	   10 mDOM= kin("OAC")/12
	   11 if(kin("OAC")<= 0.15) then mDOM=0
	   20 bio = 0.2*kin("BA")/12
	   30 DO = mol("Ozero2")*1000
	   50 donor = mDOM/(parm(2)+mDOM)
	   60 inhib = parm(3)/(DO+parm(3))
	   70 rate =  parm(1)* bio * donor 
	   80 put(rate, 13)
	   90 final = rate*get (13)/(get(11)+get(12)+get(13))
	  100 save -final * time
	  end
	POM
	   start
	    10 mPOM = kin("POM")
	    20 ep = kin("EP")
	    30 deco = parm(1) * ep * mPOM/(parm(2)+mPOM) # parm(1)=Vp, parm(2)=Kp
	    40 put (deco, 4)  #POM decomposition
	    50 rate = (1-parm(4))*get(2)-get(4)  #parm(3)=input, parm(4)=gD, fraction of decayed biomass C going to DOM pool
	    100 save -rate * time
	   end
	MOM
	   start
	    10 mMOM = kin("MOM")
	    20 em = kin("EM")
	    30 flux = parm(1) * em * mMOM /(parm(2)+ mMOM) # parm(1)=VM, parm(2)=KM
	    40 put(flux,5)  #MOM decomposition flux
	    50 rate = (1-parm(3))*get(4)-get(5)  #parm(3)=fD_fraction of decomposed P to D
	    100 save -rate*time
	   end
	DOM
	   start
	    10 rate = (1-parm(1))*get(4)+parm(2)* get(2)+get(5)+(get(8)+get(9))-get(1)-(get(6)-get(7))-get(14)
	    100 save -rate* time
	   end
	QOM
	   start
	    10 mQOM = kin("QOM")
	    20 D = kin("DOM")
	    30 flux1 = parm(1) * (1-mQOM/parm(2))* D #adsorption flux, parm(1)=adsorption constant, parm(2)=Qmax
	    40 put(flux1,6)  #adsorption flux
	    50 flux2 = parm(3) * (mQOM/parm(2)) #parm(3)=desorption constant, parm(2)=Qmax
	    60 put(flux2,7)  #desorption flux
	    70 rate = get(6)-get(7)
	    100 save -rate * time
	   end
	EP
	   start
	    10 ep = kin("EP")
	    20 flux1 = parm(1)*ep #enzyme decay
	    30 put (flux1,8)
	    40 rate = get(3)-get(8)
	    100 save -rate * time
	   end
	EM
	   start
	    10 em = kin("EM")
	    20 flux1= parm(1)* em
	    30 put (flux1,9)
	    40 rate = get(3)-get(9)
	    100  save -rate * time
	   end
	respiration
	   start
	    10 rate = (1- parm(1))*get(1)+(get(11)*1.44*get(11)/(get(11)+get(12)+get(13))+get(12)*9*get(12)/(get(11)+get(12)+get(13))-get(13)*20.24*get(13)/(get(11)+get(12)+get(13)))*12 #parm(1)=CUE
	    20 put (rate, 10)
	    30 save -rate * time
	   end
	Tot
	   start
	    10 rate = -get(10)-(GAS('redoxCH4(g)')+tot('CH4'))*12
	    20 save -rate * time
	   end
	Salt
	   start
	    10 salt=kin("salt")
	    20 rate = parm(1)*(0.10-salt)   ## The incoming concentration is important
	    30 save -rate * time
	   end
	Caero
	   start
	    10 rate = get(11)*2.44
	    30 save -rate * time
	   end
	Csulr
	   start
	    10 rate = get(12)*10
	    30 save -rate * time
	   end
	Cmeth
	   start
	    10 rate = get(13)*41.48
	    30 save -rate * time
	   end
	SELECTED_OUTPUT
	  reset false
	  file closed_redox_sw5.txt
	USER_PUNCH
	  start
	  heading Time pH  Ozero HS CH4 CO2g CO2 SC  fsl1  fsl2  fsl3  fsl4 POM MOM QOM DOM BA EP EM IC Total OrgAcid Aero SulR Meth Caero Csulr Cmeth Na  K  Ca  Mg  PO4  Cl  SO4 NH4 HCO3 FeS Pyrite 
	  10 PUNCH SIM_TIME
	  20 PUNCH -la("H+")
	  30 PUNCH mol("Ozero2")  tot('Sulfide')
	  40 PUNCH GAS('redoxCH4(g)')+tot('CH4')  GAS('redoxCO2(g)')  tot('C(4)')
	  50 PUNCH CALC_VALUE ("SC_T25")
	  60 PUNCH CALC_VALUE("fsl1")  CALC_VALUE("fsl2")  CALC_VALUE("fsl3")  CALC_VALUE("fsl4")
	  70 PUNCH kin('POM') kin('MOM') kin('QOM') kin('DOM') kin('BA') kin('EP') kin('EM') 
	  80 PUNCH kin('respiration') kin("Tot") kin('OAC') kin('Aero')  kin('SulR')  kin('Meth')
	  90 PUNCH kin('Caero') kin('Csulr') kin('Cmeth')
	  100 PUNCH tot("Na")  tot("K")  mol("Ca+2")  tot("Mg") tot("P")  tot("Cl")  tot("Sulfate") tot ("Amm")  tot("C(4)")
	  110 PUNCH equi("redoxFeS(ppt)")  equi("redoxPyrite")
	  end
	END
-------------------------------------------------------
Beginning of initial exchange-composition calculations.
-------------------------------------------------------

Exchange 1.	

X                1.600e+01 mol

	                               Equiv-    Equivalent      Log 
	Species             Moles      alents      Fraction     Gamma

	CaX2              5.136e+00   1.027e+01   6.421e-01     0.000
	MgX2              2.793e+00   5.586e+00   3.491e-01     0.000
	NaX               7.092e-02   7.092e-02   4.433e-03     0.000
	AmmH4X            4.180e-02   4.180e-02   2.612e-03     0.000
	KX                2.760e-02   2.760e-02   1.725e-03     0.000
	HX                7.524e-04   7.524e-04   4.703e-05    -0.016

------------------------------------------------------
Beginning of initial surface-composition calculations.
------------------------------------------------------

Surface 1.	

Diffuse Double Layer Surface-Complexation Model

H             
	  1.144e-09  Surface + diffuse layer charge, eq
	 -5.139e-01  Surface charge, eq
	 -1.814e-02  sigma, C/m²
	 -1.120e-01  psi, V
	  4.360e+00  -F*psi/RT
	  7.824e+01  exp(-F*psi/RT)
	  3.417e+04  specific area, m²/g
	  2.734e+06  m² for   8.000e+01 g

	Water in diffuse layer: 2.734e+01 kg, 94.2% of total DDL-water.

	Total moles in diffuse layer (excluding water), Donnan calculation.
	Donnan Layer potential, psi_DL = -4.521e-02 V.
	Boltzmann factor, exp(-psi_DL * F / RT) = 5.811e+00 (= c_DL / c_free if z is +1).

	Element       	     Moles
	Alanine       	  4.2219e-05
	Amm           	  6.0117e-03
	C             	  8.5044e-05
	Ca            	  1.6867e-01
	Cl            	  6.2575e-04
	Cysteine      	  4.2994e-05
	Ferric        	  4.4787e-03
	Glutamine     	  4.2128e-05
	Glycine       	  2.4508e-04
	H             	  3.3920e-02
	K             	  4.4476e-03
	Methane       	  2.7338e-05
	Mg            	  7.2787e-02
	Na            	  1.8108e-02
	O             	  9.9991e-03
	Ozero         	  1.3973e-02
	P             	  2.3987e-05
	Sulfate       	  7.3458e-06
	Sulfide       	  1.5674e-06
	Threonine     	  4.2127e-05
	Tyrosine      	  4.2127e-05

H_a           
	  3.837e-02  moles
	                                   Mole                     Log
	Species               Moles    Fraction    Molality    Molality

	H_a-              3.718e-02       0.969   1.971e-02      -1.705
	H_aCa+            8.730e-04       0.023   4.626e-04      -3.335
	H_aMg+            2.995e-04       0.008   1.587e-04      -3.799
	H_aH              1.267e-05       0.000   6.716e-06      -5.173

H_ab          
	  6.378e-02  moles
	                                   Mole                     Log
	Species               Moles    Fraction    Molality    Molality

	H_ab-2            6.291e-02       0.986   3.334e-02      -1.477
	H_abCa            4.670e-04       0.007   2.475e-04      -3.606
	H_abH-            2.762e-04       0.004   1.464e-04      -3.835
	H_abMg            1.273e-04       0.002   6.745e-05      -4.171
	H_abH2            9.414e-08       0.000   4.989e-08      -7.302

H_ad          
	  6.378e-02  moles
	                                   Mole                     Log
	Species               Moles    Fraction    Molality    Molality

	H_adCa            2.400e-02       0.376   1.272e-02      -1.896
	H_ad-2            1.904e-02       0.298   1.009e-02      -1.996
	H_adH-            1.419e-02       0.223   7.522e-03      -2.124
	H_adMg            6.541e-03       0.103   3.467e-03      -2.460
	H_adH2            4.838e-06       0.000   2.564e-06      -5.591

H_af          
	  6.378e-02  moles
	                                   Mole                     Log
	Species               Moles    Fraction    Molality    Molality

	H_afH-            5.540e-02       0.869   2.936e-02      -1.532
	H_afCa            8.348e-03       0.131   4.424e-03      -2.354
	H_afH2            1.888e-05       0.000   1.001e-05      -5.000
	H_af-2            1.205e-05       0.000   6.385e-06      -5.195
	H_afMg            3.864e-06       0.000   2.048e-06      -5.689

H_ah          
	  6.378e-02  moles
	                                   Mole                     Log
	Species               Moles    Fraction    Molality    Molality

	H_ahH-            6.374e-02       0.999   3.378e-02      -1.471
	H_ahH2            2.172e-05       0.000   1.151e-05      -4.939
	H_ahCa            1.708e-05       0.000   9.052e-06      -5.043
	H_ahMg            4.446e-06       0.000   2.356e-06      -5.628
	H_ah-2            2.896e-09       0.000   1.535e-09      -8.814

H_b           
	  3.837e-02  moles
	                                   Mole                     Log
	Species               Moles    Fraction    Molality    Molality

	H_b-              2.720e-02       0.709   1.441e-02      -1.841
	H_bCa+            8.227e-03       0.214   4.360e-03      -2.361
	H_bMg+            2.823e-03       0.074   1.496e-03      -2.825
	H_bH              1.194e-04       0.003   6.329e-05      -4.199

H_bc          
	  6.378e-02  moles
	                                   Mole                     Log
	Species               Moles    Fraction    Molality    Molality

	H_bcCa            3.020e-02       0.474   1.601e-02      -1.796
	H_bc-2            2.395e-02       0.376   1.269e-02      -1.896
	H_bcMg            8.231e-03       0.129   4.362e-03      -2.360
	H_bcH-            1.386e-03       0.022   7.348e-04      -3.134
	H_bcH2            6.088e-06       0.000   3.226e-06      -5.491

H_be          
	  6.378e-02  moles
	                                   Mole                     Log
	Species               Moles    Fraction    Molality    Molality

	H_beH-            6.230e-02       0.977   3.301e-02      -1.481
	H_be-2            9.374e-04       0.015   4.968e-04      -3.304
	H_beH2            2.735e-04       0.004   1.450e-04      -3.839
	H_beCa            2.151e-04       0.003   1.140e-04      -3.943
	H_beMg            5.598e-05       0.001   2.966e-05      -4.528

H_bg          
	  6.378e-05  moles
	                                   Mole                     Log
	Species               Moles    Fraction    Molality    Molality

	H_bgH-            6.323e-05       0.991   3.351e-05      -4.475
	H_bgH2            2.776e-07       0.004   1.471e-07      -6.832
	H_bgCa            2.183e-07       0.003   1.157e-07      -6.937
	H_bgMg            5.681e-08       0.001   3.011e-08      -7.521
	H_bg-2            1.988e-10       0.000   1.053e-10      -9.977

H_c           
	  3.837e-02  moles
	                                   Mole                     Log
	Species               Moles    Fraction    Molality    Molality

	H_cCa+            2.386e-02       0.622   1.264e-02      -1.898
	H_cMg+            8.185e-03       0.213   4.337e-03      -2.363
	H_c-              5.983e-03       0.156   3.171e-03      -2.499
	H_cH              3.463e-04       0.009   1.835e-04      -3.736

H_cd          
	  6.378e-05  moles
	                                   Mole                     Log
	Species               Moles    Fraction    Molality    Molality

	H_cdCa            4.979e-05       0.781   2.639e-05      -4.579
	H_cdMg            1.357e-05       0.213   7.192e-06      -5.143
	H_cd-2            2.326e-07       0.004   1.232e-07      -6.909
	H_cdH-            1.734e-07       0.003   9.189e-08      -7.037
	H_cdH2            1.004e-08       0.000   5.319e-09      -8.274

H_cf          
	  6.378e-02  moles
	                                   Mole                     Log
	Species               Moles    Fraction    Molality    Molality

	H_cfH-            5.718e-02       0.896   3.030e-02      -1.519
	H_cfH2            3.309e-03       0.052   1.754e-03      -2.756
	H_cfCa            2.602e-03       0.041   1.379e-03      -2.860
	H_cfMg            6.773e-04       0.011   3.589e-04      -3.445
	H_cf-2            1.244e-05       0.000   6.591e-06      -5.181

H_ch          
	  6.378e-02  moles
	                                   Mole                     Log
	Species               Moles    Fraction    Molality    Molality

	H_chH-            5.719e-02       0.897   3.031e-02      -1.518
	H_chH2            3.310e-03       0.052   1.754e-03      -2.756
	H_chCa            2.603e-03       0.041   1.379e-03      -2.860
	H_chMg            6.774e-04       0.011   3.590e-04      -3.445
	H_ch-2            2.599e-09       0.000   1.377e-09      -8.861

H_d           
	  3.837e-02  moles
	                                   Mole                     Log
	Species               Moles    Fraction    Molality    Molality

	H_dCa+            2.786e-02       0.726   1.477e-02      -1.831
	H_dMg+            9.560e-03       0.249   5.066e-03      -2.295
	H_d-              5.425e-04       0.014   2.875e-04      -3.541
	H_dH              4.045e-04       0.011   2.144e-04      -3.669

H_de          
	  6.378e-05  moles
	                                   Mole                     Log
	Species               Moles    Fraction    Molality    Molality

	H_deH-            2.552e-05       0.400   1.352e-05      -4.869
	H_deH2            1.903e-05       0.298   1.008e-05      -4.996
	H_deCa            1.496e-05       0.235   7.928e-06      -5.101
	H_deMg            3.894e-06       0.061   2.063e-06      -5.685
	H_de-2            3.840e-07       0.006   2.035e-07      -6.691

H_dg          
	  6.378e-05  moles
	                                   Mole                     Log
	Species               Moles    Fraction    Molality    Molality

	H_dgH-            2.567e-05       0.402   1.360e-05      -4.866
	H_dgH2            1.914e-05       0.300   1.014e-05      -4.994
	H_dgCa            1.505e-05       0.236   7.976e-06      -5.098
	H_dgMg            3.917e-06       0.061   2.076e-06      -5.683
	H_dg-2            8.071e-11       0.000   4.277e-11     -10.369

H_e           
	  1.919e-02  moles
	                                   Mole                     Log
	Species               Moles    Fraction    Molality    Molality

	H_eH              1.863e-02       0.971   9.875e-03      -2.005
	H_e-              2.804e-04       0.015   1.486e-04      -3.828
	H_eCa+            2.082e-04       0.011   1.103e-04      -3.957
	H_eMg+            6.666e-05       0.003   3.533e-05      -4.452

H_f           
	  1.919e-02  moles
	                                   Mole                     Log
	Species               Moles    Fraction    Molality    Molality

	H_fH              1.891e-02       0.985   1.002e-02      -1.999
	H_fCa+            2.112e-04       0.011   1.119e-04      -3.951
	H_fMg+            6.763e-05       0.004   3.584e-05      -4.446
	H_f-              4.112e-06       0.000   2.179e-06      -5.662

H_g           
	  1.919e-02  moles
	                                   Mole                     Log
	Species               Moles    Fraction    Molality    Molality

	H_gH              1.891e-02       0.985   1.002e-02      -1.999
	H_gCa+            2.113e-04       0.011   1.120e-04      -3.951
	H_gMg+            6.765e-05       0.004   3.585e-05      -4.446
	H_g-              5.945e-08       0.000   3.151e-08      -7.502

H_h           
	  1.919e-02  moles
	                                   Mole                     Log
	Species               Moles    Fraction    Molality    Molality

	H_hH              1.891e-02       0.985   1.002e-02      -1.999
	H_hCa+            2.113e-04       0.011   1.120e-04      -3.951
	H_hMg+            6.765e-05       0.004   3.585e-05      -4.446
	H_h-              8.594e-10       0.000   4.554e-10      -9.342

Hfo           
	 -9.038e-14  Surface + diffuse layer charge, eq
	 -7.866e-06  Surface charge, eq
	 -4.518e-06  sigma, C/m²
	 -5.587e-05  psi, V
	  2.175e-03  -F*psi/RT
	  1.002e+00  exp(-F*psi/RT)
	  6.000e+02  specific area, m²/g
	  1.680e+05  m² for   2.800e+02 g

	Water in diffuse layer: 1.680e+00 kg,  5.8% of total DDL-water.

	Total moles in diffuse layer (excluding water), Donnan calculation.
	Donnan Layer potential, psi_DL = -4.796e-05 V.
	Boltzmann factor, exp(-psi_DL * F / RT) = 1.002e+00 (= c_DL / c_free if z is +1).

	Element       	     Moles
	Alanine       	  8.7041e-05
	Amm           	  6.3963e-05
	C             	  1.5098e-05
	Ca            	  3.0861e-04
	Cl            	  2.2304e-04
	Cysteine      	  8.7041e-05
	Ferric        	  8.4079e-05
	Glutamine     	  8.7041e-05
	Glycine       	  8.7203e-05
	H             	  5.0128e-04
	K             	  4.7131e-05
	Methane       	  1.6801e-06
	Mg            	  1.3322e-04
	Na            	  1.9189e-04
	O             	  3.1561e-04
	Ozero         	  8.5873e-04
	P             	  8.3800e-06
	Sulfate       	  6.6964e-06
	Sulfide       	  1.6785e-07
	Threonine     	  8.7041e-05
	Tyrosine      	  8.7041e-05

Hfo_s         
	  5.000e-06  moles
	                                   Mole                     Log
	Species               Moles    Fraction    Molality    Molality

	Hfo_sOHCa+2       4.104e-06       0.821   2.175e-06      -5.663
	Hfo_sOH2+         6.131e-07       0.123   3.249e-07      -6.488
	Hfo_sOH           2.802e-07       0.056   1.485e-07      -6.828
	Hfo_sO-           2.934e-09       0.001   1.555e-09      -8.808

Hfo_w         
	  2.000e-04  moles
	                                   Mole                     Log
	Species               Moles    Fraction    Molality    Molality

	Hfo_wOH2+         7.692e-05       0.385   4.076e-05      -4.390
	Hfo_wHPO4-        6.795e-05       0.340   3.601e-05      -4.444
	Hfo_wOH           3.516e-05       0.176   1.863e-05      -4.730
	Hfo_wPO4-2        1.295e-05       0.065   6.861e-06      -5.164
	Hfo_wH2PO4        6.056e-06       0.030   3.209e-06      -5.494
	Hfo_wOMg+         5.334e-07       0.003   2.827e-07      -6.549
	Hfo_wO-           3.681e-07       0.002   1.951e-07      -6.710
	Hfo_wOCa+         6.945e-08       0.000   3.680e-08      -7.434
	Hfo_wSulfateO4-   7.769e-10       0.000   4.117e-10      -9.385
	Hfo_wOHSulfateO4-2   7.085e-10       0.000   3.755e-10      -9.425

-----------------------------------------
Beginning of batch-reaction calculations.
-----------------------------------------

Reaction step 1.

WARNING: Zero divide in BASIC line
 90  rate = get(1)*parm(4)-get(2)-get(3)-get(3)+get(11)*get(11)/(get(11)+get(12)+get(13))+get(12)*get(12)/(get(11)+get(12)+get(13))+get(13)*get(13)/(get(11)+get(12)+get(13)).
Value set to zero.
WARNING: Zero divide in BASIC line
 90  rate = get(1)*parm(4)-get(2)-get(3)-get(3)+get(11)*get(11)/(get(11)+get(12)+get(13))+get(12)*get(12)/(get(11)+get(12)+get(13))+get(13)*get(13)/(get(11)+get(12)+get(13)).
Value set to zero.
WARNING: Zero divide in BASIC line
 90  rate = get(1)*parm(4)-get(2)-get(3)-get(3)+get(11)*get(11)/(get(11)+get(12)+get(13))+get(12)*get(12)/(get(11)+get(12)+get(13))+get(13)*get(13)/(get(11)+get(12)+get(13)).
Value set to zero.
WARNING: Zero divide in BASIC line
 20  rate = parm(1)* mDOM+parm(2)* get(2)-get(11)*2.44*get(11)/(get(11)+get(12)+get(13))-get(12)*10*get(12)/(get(11)+get(12)+get(13))-get(13)*41.48*get(13)/(get(11)+get(12)+get(13)).
Value set to zero.
WARNING: Zero divide in BASIC line
 20  rate = parm(1)* mDOM+parm(2)* get(2)-get(11)*2.44*get(11)/(get(11)+get(12)+get(13))-get(12)*10*get(12)/(get(11)+get(12)+get(13))-get(13)*41.48*get(13)/(get(11)+get(12)+get(13)).
Value set to zero.
WARNING: Zero divide in BASIC line
 20  rate = parm(1)* mDOM+parm(2)* get(2)-get(11)*2.44*get(11)/(get(11)+get(12)+get(13))-get(12)*10*get(12)/(get(11)+get(12)+get(13))-get(13)*41.48*get(13)/(get(11)+get(12)+get(13)).
Value set to zero.
WARNING: CVode incomplete at cvode_steps 100. Cell: 0	Time: 8.203837e-01	Cvode calls: 1, continuing...

Using solution 1.	
Using exchange 1.	Exchange assemblage after simulation 3.
Using surface 1.	
Using pure phase assemblage 1.	
Using gas phase 1.	fixed volume gas phase
Using kinetics 1.	Decomposition  

Kinetics 1.	Decomposition  

	Time step: 1 seconds  (Incremented time: 1 seconds)

	Rate name       Delta Moles Total Moles   Reactant        Coefficient

	BA                1.216e-01   6.416e-01   CH2O                      0
	OAC               4.487e-02   4.587e-02   CH2O                      0
	Aero              1.059e-02   1.011e+00   CH2O                      0
	                                          HCO3                  -1.44
	                                          Ozero2                 1.44
	SulR              3.968e-07   1.000e+00   CH2O                      0
	                                          HCO3                     -9
	                                          HSulfide-              -4.5
	                                          SulfateO4-2             4.5
	Meth             -0.000e+00   1.000e+00   CH2O                      0
	                                          HCO3                  20.24
	                                          MethaneH4            -20.24
	POM              -1.441e-01   4.566e+00   CH2O                      0
	MOM               7.433e-02   1.597e+01   CH2O                      0
	DOM              -2.671e-01   2.129e-01   CH2O                      0
	QOM              -8.663e-03   1.758e+00   CH2O                      0
	EP                5.309e-04   5.253e-02   CH2O                      0
	EM                5.309e-04   5.253e-02   CH2O                      0
	respiration       3.688e-01   3.688e-01   CH2O                      0
	Tot              -3.690e-01   2.312e+01   CH2O                      0
	Salt              9.851e-04   1.985e-03   CH2O                      0
	                                          Ca+2                     -2
	                                          Cl-                     -20
	                                          HCO3                     -3
	                                          K+                       -1
	                                          Mg+2                     -4
	                                          Na+                     -25
	                                          Nitrate                  -5
	                                          Sulfate                  -5
	Caero             2.586e-02   2.586e-02   CH2O                      0
	Csulr             7.275e-05   7.275e-05   CH2O                      0
	Cmeth            -0.000e+00   0.000e+00   CH2O                      0

-----------------------------------Gas phase-----------------------------------

Total pressure:  0.01      atmospheres 
    Gas volume:   9.00e-01 liters
  Molar volume:   2.49e+03 liters/mole

                                                        Moles in gas
                                            ----------------------------------
Component                log P           P     Initial       Final       Delta

redoxCH4(g)              -3.41   3.893e-04   0.000e+00   1.432e-05   1.432e-05
redoxCO2(g)              -2.03   9.425e-03   1.162e-05   3.467e-04   3.351e-04
redoxO2(g)               -5.06   8.711e-06   7.357e-03   3.205e-07  -7.357e-03

-------------------------------Phase assemblage--------------------------------

                                                      Moles in assemblage
Phase               SI  log IAP  log K(T, P)   Initial       Final       Delta

Hydroxyapatite    0.00    -3.42     -3.42    1.000e-03   3.792e-04  -6.208e-04
redoxCalcite     -1.61   -10.09     -8.48    1.000e-03           0  -1.000e-03
redoxFe(OH)3(a)    0.00     4.89      4.89    2.000e+00   2.005e+00   4.653e-03
redoxFeS(ppt)    -2.29    -6.21     -3.92    1.000e-03           0  -1.000e-03
redoxPyrite       0.00   -18.48    -18.48    1.000e-03   1.392e-03   3.923e-04

------------------------------Surface composition------------------------------

Diffuse Double Layer Surface-Complexation Model

H             
	 -1.133e-10  Surface + diffuse layer charge, eq
	 -5.867e-01  Surface charge, eq
	 -2.071e-02  sigma, C/m²
	 -8.117e-02  psi, V
	  3.159e+00  -F*psi/RT
	  2.355e+01  exp(-F*psi/RT)
	  3.417e+04  specific area, m²/g
	  2.734e+06  m² for   8.000e+01 g

	Water in diffuse layer: 2.734e+01 kg, 94.2% of total DDL-water.

	Total moles in diffuse layer (excluding water), Donnan calculation.
	Donnan Layer potential, psi_DL = -2.457e-02 V.
	Boltzmann factor, exp(-psi_DL * F / RT) = 2.603e+00 (= c_DL / c_free if z is +1).

	Element       	     Moles
	Alanine       	  1.2121e-04
	Amm           	  6.3055e-03
	C             	  1.5686e-02
	Ca            	  2.0548e-01
	Cl            	  1.5542e-02
	Cysteine      	  1.2244e-04
	Ferric        	  3.8937e-06
	Ferrous       	  1.6259e-05
	Glutamine     	  1.2107e-04
	Glycine       	  3.2172e-04
	H             	  8.3154e-02
	K             	  4.7950e-03
	Methane       	  1.4670e-05
	Mg            	  8.8440e-02
	Na            	  2.3997e-02
	Nitrate       	  3.6800e-03
	O             	  6.8391e-02
	Ozero         	  6.0942e-07
	P             	  1.4012e-03
	Sulfate       	  3.3600e-03
	Sulfide       	  1.8838e-04
	Threonine     	  1.2107e-04
	Tyrosine      	  1.2107e-04

H_a           
	  3.837e-02  moles
	                                   Mole                     Log
	Species               Moles    Fraction    Molality    Molality

	H_a-              3.781e-02       0.985   2.004e-02      -1.698
	H_aCa+            4.130e-04       0.011   2.189e-04      -3.660
	H_aMg+            1.415e-04       0.004   7.503e-05      -4.125
	H_aH              8.907e-06       0.000   4.722e-06      -5.326

H_ab          
	  6.378e-02  moles
	                                   Mole                     Log
	Species               Moles    Fraction    Molality    Molality

	H_ab-2            6.331e-02       0.993   3.356e-02      -1.474
	H_abCa            2.187e-04       0.003   1.159e-04      -3.936
	H_abH-            1.922e-04       0.003   1.019e-04      -3.992
	H_abMg            5.954e-05       0.001   3.156e-05      -4.501
	H_abH2            4.527e-08       0.000   2.400e-08      -7.620

H_ad          
	  6.378e-02  moles
	                                   Mole                     Log
	Species               Moles    Fraction    Molality    Molality

	H_ad-2            2.820e-02       0.442   1.495e-02      -1.825
	H_adCa            1.654e-02       0.259   8.768e-03      -2.057
	H_adH-            1.453e-02       0.228   7.704e-03      -2.113
	H_adMg            4.503e-03       0.071   2.387e-03      -2.622
	H_adH2            3.424e-06       0.000   1.815e-06      -5.741

H_af          
	  6.378e-02  moles
	                                   Mole                     Log
	Species               Moles    Fraction    Molality    Molality

	H_afH-            5.788e-02       0.907   3.068e-02      -1.513
	H_afCa            5.870e-03       0.092   3.112e-03      -2.507
	H_af-2            1.821e-05       0.000   9.653e-06      -5.015
	H_afH2            1.364e-05       0.000   7.228e-06      -5.141
	H_afMg            2.714e-06       0.000   1.439e-06      -5.842

H_ah          
	  6.378e-02  moles
	                                   Mole                     Log
	Species               Moles    Fraction    Molality    Molality

	H_ahH-            6.375e-02       1.000   3.379e-02      -1.471
	H_ahH2            1.502e-05       0.000   7.962e-06      -5.099
	H_ahCa            1.150e-05       0.000   6.095e-06      -5.215
	H_ahMg            2.990e-06       0.000   1.585e-06      -5.800
	H_ah-2            4.191e-09       0.000   2.221e-09      -8.653

H_b           
	  3.837e-02  moles
	                                   Mole                     Log
	Species               Moles    Fraction    Molality    Molality

	H_b-              3.219e-02       0.839   1.706e-02      -1.768
	H_bCa+            4.530e-03       0.118   2.401e-03      -2.620
	H_bMg+            1.553e-03       0.040   8.230e-04      -3.085
	H_bH              9.770e-05       0.003   5.179e-05      -4.286

H_bc          
	  6.378e-02  moles
	                                   Mole                     Log
	Species               Moles    Fraction    Molality    Molality

	H_bc-2            3.570e-02       0.560   1.893e-02      -1.723
	H_bcCa            2.094e-02       0.328   1.110e-02      -1.955
	H_bcMg            5.702e-03       0.089   3.023e-03      -2.520
	H_bcH-            1.428e-03       0.022   7.572e-04      -3.121
	H_bcH2            4.336e-06       0.000   2.298e-06      -5.639

H_be          
	  6.378e-02  moles
	                                   Mole                     Log
	Species               Moles    Fraction    Molality    Molality

	H_beH-            6.206e-02       0.973   3.290e-02      -1.483
	H_be-2            1.351e-03       0.021   7.161e-04      -3.145
	H_beH2            1.884e-04       0.003   9.985e-05      -4.001
	H_beCa            1.442e-04       0.002   7.644e-05      -4.117
	H_beMg            3.749e-05       0.001   1.987e-05      -4.702

H_bg          
	  6.378e-05  moles
	                                   Mole                     Log
	Species               Moles    Fraction    Molality    Molality

	H_bgH-            6.340e-05       0.994   3.361e-05      -4.474
	H_bgH2            1.924e-07       0.003   1.020e-07      -6.991
	H_bgCa            1.473e-07       0.002   7.809e-08      -7.107
	H_bgMg            3.830e-08       0.001   2.030e-08      -7.692
	H_bg-2            2.883e-10       0.000   1.528e-10      -9.816

H_c           
	  3.837e-02  moles
	                                   Mole                     Log
	Species               Moles    Fraction    Molality    Molality

	H_cCa+            2.016e-02       0.525   1.069e-02      -1.971
	H_c-              1.087e-02       0.283   5.760e-03      -2.240
	H_cMg+            6.910e-03       0.180   3.663e-03      -2.436
	H_cH              4.348e-04       0.011   2.305e-04      -3.637

H_cd          
	  6.378e-05  moles
	                                   Mole                     Log
	Species               Moles    Fraction    Molality    Molality

	H_cdCa            4.953e-05       0.777   2.626e-05      -4.581
	H_cdMg            1.349e-05       0.211   7.148e-06      -5.146
	H_cd-2            4.972e-07       0.008   2.636e-07      -6.579
	H_cdH-            2.563e-07       0.004   1.358e-07      -6.867
	H_cdH2            1.025e-08       0.000   5.435e-09      -8.265

H_cf          
	  6.378e-02  moles
	                                   Mole                     Log
	Species               Moles    Fraction    Molality    Molality

	H_cfH-            5.911e-02       0.927   3.134e-02      -1.504
	H_cfH2            2.365e-03       0.037   1.254e-03      -2.902
	H_cfCa            1.811e-03       0.028   9.598e-04      -3.018
	H_cfMg            4.708e-04       0.007   2.496e-04      -3.603
	H_cf-2            1.860e-05       0.000   9.860e-06      -5.006

H_ch          
	  6.378e-02  moles
	                                   Mole                     Log
	Species               Moles    Fraction    Molality    Molality

	H_chH-            5.913e-02       0.927   3.134e-02      -1.504
	H_chH2            2.366e-03       0.037   1.254e-03      -2.902
	H_chCa            1.811e-03       0.028   9.601e-04      -3.018
	H_chMg            4.709e-04       0.007   2.496e-04      -3.603
	H_ch-2            3.887e-09       0.000   2.061e-09      -8.686

H_d           
	  3.837e-02  moles
	                                   Mole                     Log
	Species               Moles    Fraction    Molality    Molality

	H_dCa+            2.729e-02       0.711   1.446e-02      -1.840
	H_dMg+            9.353e-03       0.244   4.958e-03      -2.305
	H_d-              1.142e-03       0.030   6.053e-04      -3.218
	H_dH              5.886e-04       0.015   3.120e-04      -3.506

H_de          
	  6.378e-05  moles
	                                   Mole                     Log
	Species               Moles    Fraction    Molality    Molality

	H_deH-            3.135e-05       0.492   1.662e-05      -4.779
	H_deH2            1.616e-05       0.253   8.566e-06      -5.067
	H_deCa            1.237e-05       0.194   6.558e-06      -5.183
	H_deMg            3.217e-06       0.050   1.705e-06      -5.768
	H_de-2            6.824e-07       0.011   3.617e-07      -6.442

H_dg          
	  6.378e-05  moles
	                                   Mole                     Log
	Species               Moles    Fraction    Molality    Molality

	H_dgH-            3.169e-05       0.497   1.680e-05      -4.775
	H_dgH2            1.633e-05       0.256   8.658e-06      -5.063
	H_dgCa            1.250e-05       0.196   6.629e-06      -5.179
	H_dgMg            3.251e-06       0.051   1.723e-06      -5.764
	H_dg-2            1.441e-10       0.000   7.640e-11     -10.117

H_e           
	  1.919e-02  moles
	                                   Mole                     Log
	Species               Moles    Fraction    Molality    Molality

	H_eH              1.860e-02       0.969   9.860e-03      -2.006
	H_e-              4.049e-04       0.021   2.146e-04      -3.668
	H_eCa+            1.399e-04       0.007   7.414e-05      -4.130
	H_eMg+            4.474e-05       0.002   2.371e-05      -4.625

H_f           
	  1.919e-02  moles
	                                   Mole                     Log
	Species               Moles    Fraction    Molality    Molality

	H_fH              1.900e-02       0.990   1.007e-02      -1.997
	H_fCa+            1.428e-04       0.007   7.571e-05      -4.121
	H_fMg+            4.569e-05       0.002   2.422e-05      -4.616
	H_f-              5.977e-06       0.000   3.168e-06      -5.499

H_g           
	  1.919e-02  moles
	                                   Mole                     Log
	Species               Moles    Fraction    Molality    Molality

	H_gH              1.900e-02       0.990   1.007e-02      -1.997
	H_gCa+            1.429e-04       0.007   7.573e-05      -4.121
	H_gMg+            4.570e-05       0.002   2.423e-05      -4.616
	H_g-              8.642e-08       0.000   4.581e-08      -7.339

H_h           
	  1.919e-02  moles
	                                   Mole                     Log
	Species               Moles    Fraction    Molality    Molality

	H_hH              1.900e-02       0.990   1.007e-02      -1.997
	H_hCa+            1.429e-04       0.007   7.573e-05      -4.121
	H_hMg+            4.570e-05       0.002   2.423e-05      -4.616
	H_h-              1.249e-09       0.000   6.621e-10      -9.179

Hfo           
	 -2.690e-14  Surface + diffuse layer charge, eq
	 -1.393e-04  Surface charge, eq
	 -8.002e-05  sigma, C/m²
	 -4.613e-04  psi, V
	  1.796e-02  -F*psi/RT
	  1.018e+00  exp(-F*psi/RT)
	  6.000e+02  specific area, m²/g
	  1.680e+05  m² for   2.800e+02 g

	Water in diffuse layer: 1.680e+00 kg,  5.8% of total DDL-water.

	Total moles in diffuse layer (excluding water), Donnan calculation.
	Donnan Layer potential, psi_DL = -1.842e-04 V.
	Boltzmann factor, exp(-psi_DL * F / RT) = 1.007e+00 (= c_DL / c_free if z is +1).

	Element       	     Moles
	Alanine       	  4.9636e-05
	Amm           	  1.5060e-04
	C             	  1.5552e-03
	Ca            	  1.9734e-03
	Cl            	  2.4681e-03
	Cysteine      	  4.9426e-05
	Ferric        	  1.1464e-07
	Ferrous       	  1.6725e-07
	Glutamine     	  4.9660e-05
	Glycine       	  5.1009e-05
	H             	  4.9326e-03
	K             	  1.1423e-04
	Methane       	  9.0161e-07
	Mg            	  8.5580e-04
	Na            	  5.7152e-04
	Nitrate       	  5.8440e-04
	O             	  9.6138e-03
	Ozero         	  3.7454e-08
	P             	  1.9142e-04
	Sulfate       	  7.4188e-04
	Sulfide       	  1.4450e-05
	Threonine     	  4.9660e-05
	Tyrosine      	  4.9661e-05

Hfo_s         
	  5.000e-06  moles
	                                   Mole                     Log
	Species               Moles    Fraction    Molality    Molality

	Hfo_sOHCa+2       4.634e-06       0.927   2.456e-06      -5.610
	Hfo_sOH2+         3.048e-07       0.061   1.616e-07      -6.792
	Hfo_sOH           5.972e-08       0.012   3.166e-08      -7.500
	Hfo_sOFerrous+    1.639e-09       0.000   8.688e-10      -9.061
	Hfo_sO-           2.681e-10       0.000   1.421e-10      -9.847

Hfo_w         
	  2.000e-04  moles
	                                   Mole                     Log
	Species               Moles    Fraction    Molality    Molality

	Hfo_wHPO4-        1.410e-04       0.705   7.474e-05      -4.126
	Hfo_wH2PO4        2.932e-05       0.147   1.554e-05      -4.809
	Hfo_wOH2+         1.506e-05       0.075   7.985e-06      -5.098
	Hfo_wPO4-2        1.152e-05       0.058   6.105e-06      -5.214
	Hfo_wOH           2.951e-06       0.015   1.565e-06      -5.806
	Hfo_wOMg+         1.016e-07       0.001   5.386e-08      -7.269
	Hfo_wO-           1.325e-08       0.000   7.022e-09      -8.154
	Hfo_wOCa+         1.324e-08       0.000   7.019e-09      -8.154
	Hfo_wSulfateO4-   1.241e-08       0.000   6.576e-09      -8.182
	Hfo_wOHSulfateO4-2   4.849e-09       0.000   2.571e-09      -8.590
	Hfo_wOFerrous+    7.559e-10       0.000   4.007e-10      -9.397
	Hfo_wOFerrousOH   7.772e-12       0.000   4.120e-12     -11.385

-----------------------------Exchange composition------------------------------

X                1.600e+01 mol

	                               Equiv-    Equivalent      Log 
	Species             Moles      alents      Fraction     Gamma

	CaX2              5.132e+00   1.026e+01   6.415e-01    -0.000
	MgX2              2.788e+00   5.576e+00   3.485e-01    -0.000
	NaX               8.886e-02   8.886e-02   5.554e-03    -0.000
	AmmH4X            4.132e-02   4.132e-02   2.583e-03    -0.000
	KX                2.809e-02   2.809e-02   1.756e-03    -0.000
	HX                7.895e-04   7.895e-04   4.935e-05    -0.032
	FerrousX2         5.911e-04   1.182e-03   7.388e-05    -0.135

-----------------------------Solution composition------------------------------

	Elements           Molality       Moles

	Alanine           2.997e-05   5.654e-05
	Amm               8.901e-05   1.679e-04
	C                 9.299e-04   1.754e-03
	Ca                1.159e-03   2.186e-03
	Cl                1.480e-03   2.791e-03
	Cysteine          2.984e-05   5.630e-05
	Ferric            6.790e-08   1.281e-07
	Ferrous           9.829e-08   1.854e-07
	Glutamine         2.999e-05   5.657e-05
	Glycine           3.058e-05   5.769e-05
	K                 6.751e-05   1.274e-04
	Methane           5.367e-07   1.012e-06
	Mg                5.026e-04   9.481e-04
	Na                3.378e-04   6.372e-04
	Nitrate           3.504e-04   6.610e-04
	Ozero             2.229e-08   4.206e-08
	P                 1.148e-04   2.166e-04
	Sulfate           4.470e-04   8.433e-04
	Sulfide           8.622e-06   1.626e-05
	Threonine         2.999e-05   5.657e-05
	Tyrosine          2.999e-05   5.657e-05

----------------------------Description of solution----------------------------

                                       pH  =   6.590      Charge balance
                                       pe  =  -6.638      Adjusted to redox equilibrium
      Specific Conductance (µS/cm,  25°C)  = 403
                        Activity of water  =   1.000
                 Ionic strength (mol/kgw)  =   5.772e-03
                       Mass of water (kg)  =   1.887e+00
                 Total alkalinity (eq/kg)  =   8.285e-04
                       Total CO2 (mol/kg)  =   9.299e-04
                         Temperature (°C)  =  25.00
                           Pressure (atm)  =  0.01
                  Electrical balance (eq)  =   4.149e-09
 Percent error, 100*(Cat-|An|)/(Cat+|An|)  =   0.00
                               Iterations  = 845
                                  Total H  = 2.094312e+02
                                  Total O  = 1.047237e+02

----------------------------Distribution of species----------------------------

                                               Log       Log       Log    mole V
   Species          Molality    Activity  Molality  Activity     Gamma   cm³/mol

   H+              2.765e-07   2.571e-07    -6.558    -6.590    -0.032      0.00
   OH-             4.226e-08   3.893e-08    -7.374    -7.410    -0.036     (0)  
   H2O             5.551e+01   9.999e-01     1.744    -0.000     0.000     18.07
Alanine       2.997e-05
   Alanine-2       2.996e-05   2.168e-05    -4.523    -4.664    -0.141     (0)  
   H2(Alanine)     1.061e-08   1.062e-08    -7.974    -7.974     0.001     (0)  
   H(Alanine)-     1.353e-09   1.248e-09    -8.869    -8.904    -0.035     (0)  
Amm           8.901e-05
   AmmH4+          8.851e-05   8.138e-05    -4.053    -4.089    -0.036     (0)  
   AmmH4SulfateO4-   3.140e-07   2.896e-07    -6.503    -6.538    -0.035     (0)  
   AmmH3           1.802e-07   1.804e-07    -6.744    -6.744     0.001     (0)  
C(4)          9.299e-04
   HCO3-           6.005e-04   5.551e-04    -3.222    -3.256    -0.034     (0)  
   CO2             3.205e-04   3.209e-04    -3.494    -3.494     0.001     (0)  
   CaHCO3+         6.144e-06   5.680e-06    -5.212    -5.246    -0.034     (0)  
   MgHCO3+         2.437e-06   2.248e-06    -5.613    -5.648    -0.035     (0)  
   CO3-2           1.387e-07   1.012e-07    -6.858    -6.995    -0.137     (0)  
   CaCO3           1.362e-07   1.364e-07    -6.866    -6.865     0.001     (0)  
   NaHCO3          9.701e-08   9.714e-08    -7.013    -7.013     0.001     (0)  
   MgCO3           3.339e-08   3.344e-08    -7.476    -7.476     0.001     (0)  
   FerrousHCO3+    3.717e-09   3.428e-09    -8.430    -8.465    -0.035     (0)  
   NaCO3-          6.362e-10   5.867e-10    -9.196    -9.232    -0.035     (0)  
   FerrousCO3      1.498e-10   1.500e-10    -9.824    -9.824     0.001     (0)  
Ca            1.159e-03
   Ca+2            1.099e-03   8.020e-04    -2.959    -3.096    -0.137     (0)  
   CaSulfateO4     4.414e-05   4.420e-05    -4.355    -4.355     0.001     (0)  
   CaHPO4          7.507e-06   7.517e-06    -5.125    -5.124     0.001     (0)  
   CaHCO3+         6.144e-06   5.680e-06    -5.212    -5.246    -0.034     (0)  
   CaH2PO4+        1.575e-06   1.453e-06    -5.803    -5.838    -0.035     (0)  
   CaCO3           1.362e-07   1.364e-07    -6.866    -6.865     0.001     (0)  
   CaPO4-          7.500e-08   6.917e-08    -7.125    -7.160    -0.035     (0)  
   CaOH+           5.613e-10   5.177e-10    -9.251    -9.286    -0.035     (0)  
   CaHSulfateO4+   7.218e-11   6.658e-11   -10.142   -10.177    -0.035     (0)  
Cl            1.480e-03
   Cl-             1.480e-03   1.363e-03    -2.830    -2.865    -0.036     (0)  
   FerrousCl+      1.260e-10   1.162e-10    -9.900    -9.935    -0.035     (0)  
   FerricCl+2      7.527e-17   5.446e-17   -16.123   -16.264    -0.141     (0)  
   FerricCl2+      3.596e-19   3.317e-19   -18.444   -18.479    -0.035     (0)  
   FerricCl3       4.516e-23   4.522e-23   -22.345   -22.345     0.001     (0)  
Cysteine      2.984e-05
   Cysteine-2      2.976e-05   2.153e-05    -4.526    -4.667    -0.141     (0)  
   H2(Cysteine)    8.565e-08   8.576e-08    -7.067    -7.067     0.001     (0)  
   H(Cysteine)-    3.078e-10   2.839e-10    -9.512    -9.547    -0.035     (0)  
Ferric        6.790e-08
   Ferric(OH)2+    4.638e-08   4.277e-08    -7.334    -7.369    -0.035     (0)  
   Ferric(OH)3     2.140e-08   2.143e-08    -7.670    -7.669     0.001     (0)  
   Ferric(OH)4-    8.241e-11   7.601e-11   -10.084   -10.119    -0.035     (0)  
   FerricOH+2      4.590e-11   3.321e-11   -10.338   -10.479    -0.141     (0)  
   FerricH2PO4+2   3.483e-14   2.520e-14   -13.458   -13.599    -0.141     (0)  
   FerricHPO4+     6.598e-15   6.086e-15   -14.181   -14.216    -0.035     (0)  
   FerricSulfateO4+   4.343e-15   4.006e-15   -14.362   -14.397    -0.035     (0)  
   Ferric+3        2.548e-15   1.323e-15   -14.594   -14.879    -0.285     (0)  
   FerricCl+2      7.527e-17   5.446e-17   -16.123   -16.264    -0.141     (0)  
   Ferric(SulfateO4)2-   2.625e-17   2.421e-17   -16.581   -16.616    -0.035     (0)  
   FerricCl2+      3.596e-19   3.317e-19   -18.444   -18.479    -0.035     (0)  
   Ferric2(OH)2+4   1.083e-19   2.969e-20   -18.965   -19.527    -0.562     (0)  
   FerricHSulfateO4+2   3.812e-21   2.758e-21   -20.419   -20.559    -0.141     (0)  
   FerricCl3       4.516e-23   4.522e-23   -22.345   -22.345     0.001     (0)  
   Ferric3(OH)4+5   2.005e-24   2.653e-25   -23.698   -24.576    -0.878     (0)  
Ferrous       9.829e-08
   Ferrous+2       8.425e-08   6.176e-08    -7.074    -7.209    -0.135     (0)  
   FerrousHPO4     4.198e-09   4.203e-09    -8.377    -8.376     0.001     (0)  
   FerrousHCO3+    3.717e-09   3.428e-09    -8.430    -8.465    -0.035     (0)  
   FerrousSulfateO4   3.030e-09   3.034e-09    -8.519    -8.518     0.001     (0)  
   FerrousH2PO4+   2.376e-09   2.191e-09    -8.624    -8.659    -0.035     (0)  
   Ferrous(HSulfide)2   3.683e-10   3.688e-10    -9.434    -9.433     0.001     (0)  
   FerrousCO3      1.498e-10   1.500e-10    -9.824    -9.824     0.001     (0)  
   FerrousCl+      1.260e-10   1.162e-10    -9.900    -9.935    -0.035     (0)  
   FerrousOH+      8.236e-11   7.596e-11   -10.084   -10.119    -0.035     (0)  
   Ferrous(HSulfide)3-   1.127e-13   1.040e-13   -12.948   -12.983    -0.035     (0)  
   FerrousHSulfateO4+   5.559e-15   5.127e-15   -14.255   -14.290    -0.035     (0)  
Glutamine     2.999e-05
   Glutamine-2     2.998e-05   2.169e-05    -4.523    -4.664    -0.141     (0)  
   H2(Glutamine)   1.932e-09   1.935e-09    -8.714    -8.713     0.001     (0)  
   H(Glutamine)-   8.945e-10   8.250e-10    -9.048    -9.084    -0.035     (0)  
Glycine       3.058e-05
   Glycine-        3.057e-05   2.820e-05    -4.515    -4.550    -0.035     (0)  
   H2(Glycine)+    8.045e-09   7.420e-09    -8.094    -8.130    -0.035     (0)  
   H(Glycine)      1.584e-09   1.586e-09    -8.800    -8.800     0.001     (0)  
H(0)          1.763e-03
   H2              8.815e-04   8.827e-04    -3.055    -3.054     0.001     (0)  
K             6.751e-05
   K+              6.738e-05   6.208e-05    -4.171    -4.207    -0.036     (0)  
   KSulfateO4-     1.306e-07   1.205e-07    -6.884    -6.919    -0.035     (0)  
   KHPO4-          2.244e-09   2.069e-09    -8.649    -8.684    -0.035     (0)  
   KOH             8.361e-13   8.372e-13   -12.078   -12.077     0.001     (0)  
Methane       5.367e-07
   MethaneH4       5.367e-07   5.374e-07    -6.270    -6.270     0.001     (0)  
Mg            5.026e-04
   Mg+2            4.724e-04   3.461e-04    -3.326    -3.461    -0.135     (0)  
   MgSulfateO4     2.238e-05   2.241e-05    -4.650    -4.650     0.001     (0)  
   MgHPO4          4.380e-06   4.386e-06    -5.359    -5.358     0.001     (0)  
   MgHCO3+         2.437e-06   2.248e-06    -5.613    -5.648    -0.035     (0)  
   MgH2PO4+        8.655e-07   7.982e-07    -6.063    -6.098    -0.035     (0)  
   MgPO4-          4.366e-08   4.026e-08    -7.360    -7.395    -0.035     (0)  
   MgCO3           3.339e-08   3.344e-08    -7.476    -7.476     0.001     (0)  
   MgOH+           5.299e-09   4.887e-09    -8.276    -8.311    -0.035     (0)  
Na            3.378e-04
   Na+             3.372e-04   3.112e-04    -3.472    -3.507    -0.035     (0)  
   NaSulfateO4-    4.671e-07   4.308e-07    -6.331    -6.366    -0.035     (0)  
   NaHCO3          9.701e-08   9.714e-08    -7.013    -7.013     0.001     (0)  
   NaHPO4-         1.125e-08   1.037e-08    -7.949    -7.984    -0.035     (0)  
   NaCO3-          6.362e-10   5.867e-10    -9.196    -9.232    -0.035     (0)  
   NaOH            7.986e-12   7.997e-12   -11.098   -11.097     0.001     (0)  
Nitrate       3.504e-04
   NitrateO3-      3.504e-04   3.231e-04    -3.455    -3.491    -0.035     (0)  
O(0)          0.000e+00
   O2              0.000e+00   0.000e+00   -86.272   -86.272     0.001     (0)  
Ozero         2.229e-08
   Ozero2          1.115e-08   1.116e-08    -7.953    -7.952     0.001     (0)  
P             1.148e-04
   H2PO4-          7.670e-05   7.079e-05    -4.115    -4.150    -0.035     (0)  
   HPO4-2          2.365e-05   1.709e-05    -4.626    -4.767    -0.141     (0)  
   CaHPO4          7.507e-06   7.517e-06    -5.125    -5.124     0.001     (0)  
   MgHPO4          4.380e-06   4.386e-06    -5.359    -5.358     0.001     (0)  
   CaH2PO4+        1.575e-06   1.453e-06    -5.803    -5.838    -0.035     (0)  
   MgH2PO4+        8.655e-07   7.982e-07    -6.063    -6.098    -0.035     (0)  
   CaPO4-          7.500e-08   6.917e-08    -7.125    -7.160    -0.035     (0)  
   MgPO4-          4.366e-08   4.026e-08    -7.360    -7.395    -0.035     (0)  
   NaHPO4-         1.125e-08   1.037e-08    -7.949    -7.984    -0.035     (0)  
   FerrousHPO4     4.198e-09   4.203e-09    -8.377    -8.376     0.001     (0)  
   FerrousH2PO4+   2.376e-09   2.191e-09    -8.624    -8.659    -0.035     (0)  
   KHPO4-          2.244e-09   2.069e-09    -8.649    -8.684    -0.035     (0)  
   PO4-3           6.221e-11   2.997e-11   -10.206   -10.523    -0.317     (0)  
   FerricH2PO4+2   3.483e-14   2.520e-14   -13.458   -13.599    -0.141     (0)  
   FerricHPO4+     6.598e-15   6.086e-15   -14.181   -14.216    -0.035     (0)  
Sulfate       4.470e-04
   SulfateO4-2     3.796e-04   2.762e-04    -3.421    -3.559    -0.138     (0)  
   CaSulfateO4     4.414e-05   4.420e-05    -4.355    -4.355     0.001     (0)  
   MgSulfateO4     2.238e-05   2.241e-05    -4.650    -4.650     0.001     (0)  
   NaSulfateO4-    4.671e-07   4.308e-07    -6.331    -6.366    -0.035     (0)  
   AmmH4SulfateO4-   3.140e-07   2.896e-07    -6.503    -6.538    -0.035     (0)  
   KSulfateO4-     1.306e-07   1.205e-07    -6.884    -6.919    -0.035     (0)  
   HSulfateO4-     7.486e-09   6.904e-09    -8.126    -8.161    -0.035     (0)  
   FerrousSulfateO4   3.030e-09   3.034e-09    -8.519    -8.518     0.001     (0)  
   CaHSulfateO4+   7.218e-11   6.658e-11   -10.142   -10.177    -0.035     (0)  
   FerrousHSulfateO4+   5.559e-15   5.127e-15   -14.255   -14.290    -0.035     (0)  
   FerricSulfateO4+   4.343e-15   4.006e-15   -14.362   -14.397    -0.035     (0)  
   Ferric(SulfateO4)2-   2.625e-17   2.421e-17   -16.581   -16.616    -0.035     (0)  
   FerricHSulfateO4+2   3.812e-21   2.758e-21   -20.419   -20.559    -0.141     (0)  
Sulfide       8.622e-06
   H2Sulfide       5.811e-06   5.819e-06    -5.236    -5.235     0.001     (0)  
   HSulfide-       2.810e-06   2.588e-06    -5.551    -5.587    -0.036     (0)  
   Ferrous(HSulfide)2   3.683e-10   3.688e-10    -9.434    -9.433     0.001     (0)  
   Sulfide-2       1.670e-12   1.216e-12   -11.777   -11.915    -0.138     (0)  
   Ferrous(HSulfide)3-   1.127e-13   1.040e-13   -12.948   -12.983    -0.035     (0)  
Threonine     2.999e-05
   Threonine-2     2.998e-05   2.170e-05    -4.523    -4.664    -0.141     (0)  
   H2(Threonine)   1.888e-09   1.890e-09    -8.724    -8.723     0.001     (0)  
   H(Threonine)-   8.543e-10   7.879e-10    -9.068    -9.104    -0.035     (0)  
Tyrosine      2.999e-05
   Tyrosine-2      2.998e-05   2.170e-05    -4.523    -4.664    -0.141     (0)  
   H2(Tyrosine)    1.845e-09   1.847e-09    -8.734    -8.733     0.001     (0)  
   H(Tyrosine)-    9.585e-10   8.840e-10    -9.018    -9.054    -0.035     (0)  

------------------------------Saturation indices-------------------------------

  Phase               SI** log IAP   log K(298 K,   0 atm)

  FixpH            -6.59     -6.59    0.00  H+
  H2(g)             0.10     -3.05   -3.15  H2
  H2O(g)           -1.51     -0.00    1.51  H2O
  Halite           -7.95     -6.37    1.58  NaCl
  Hydroxyapatite    0.00     -3.42   -3.42  Ca5(PO4)3OH
  ORM             761.27   -117.96 -879.23  C5H4O2Amm
  redoxAnhydrite   -2.29     -6.65   -4.36  CaSulfateO4
  redoxAragonite   -1.75    -10.09   -8.34  CaCO3
  redoxCalcite     -1.61    -10.09   -8.48  CaCO3
  redoxCH4(g)      -3.41     -6.27   -2.86  MethaneH4
  redoxCO2(g)      -2.03     -3.49   -1.47  CO2
  redoxDolomite    -3.46    -20.55  -17.09  CaMg(CO3)2
  redoxFe(OH)3(a)   0.00      4.89    4.89  Ferric(OH)3
  redoxFeS(ppt)    -2.29     -6.21   -3.92  FerrousSulfide
  redoxGoethite     5.89      4.89   -1.00  FerricOOH
  redoxGypsum      -2.07     -6.65   -4.58  CaSulfateO4:2H2O
  redoxH2S(g)      -4.24     -5.24   -1.00  H2Sulfide
  redoxHematite    13.79      9.78   -4.01  Ferric2O3
  redoxJarosite-K  -7.21    -16.42   -9.21  KFerric3(SulfateO4)2(OH)6
  redoxMackinawite  -1.56     -6.21   -4.65  FerrousSulfide
  redoxMelanterite  -8.56    -10.77   -2.21  FerrousSulfateO4:7H2O
  redoxNH3(g)      -8.51     -6.74    1.77  AmmH3
  redoxO2(g)       -5.06     -7.95   -2.89  Ozero2
  redoxPyrite       0.00    -18.48  -18.48  FerrousSulfide2
  redoxSiderite    -3.31    -14.20  -10.89  FerrousCO3
  redoxSulfur     -10.21     -5.33    4.88  Sulfide
  redoxVivianite   -6.67    -42.67  -36.00  Ferrous3(PO4)2:8H2O

**For a gas, SI = log10(fugacity). Fugacity = pressure * phi / 1 atm.
  For ideal gases, phi = 1.

Reaction step 2.

Using solution 1.	
Using exchange 1.	Exchange assemblage after simulation 3.
Using surface 1.	
Using pure phase assemblage 1.	
Using gas phase 1.	fixed volume gas phase
Using kinetics 1.	Decomposition  

Kinetics 1.	Decomposition  

	Time step: 1 seconds  (Incremented time: 2 seconds)

	Rate name       Delta Moles Total Moles   Reactant        Coefficient

	BA                6.450e-02   7.061e-01   CH2O                      0
	OAC               2.850e-02   7.437e-02   CH2O                      0
	Aero              4.509e-07   1.011e+00   CH2O                      0
	                                          HCO3                  -1.44
	                                          Ozero2                 1.44
	SulR              3.132e-05   1.000e+00   CH2O                      0
	                                          HCO3                     -9
	                                          HSulfide-              -4.5
	                                          SulfateO4-2             4.5
	Meth             -0.000e+00   1.000e+00   CH2O                      0
	                                          HCO3                  20.24
	                                          MethaneH4            -20.24
	POM              -1.405e-01   4.425e+00   CH2O                      0
	MOM               7.302e-02   1.605e+01   CH2O                      0
	DOM              -1.437e-01   6.918e-02   CH2O                      0
	QOM              -5.427e-03   1.753e+00   CH2O                      0
	EP                6.258e-04   5.316e-02   CH2O                      0
	EM                6.258e-04   5.316e-02   CH2O                      0
	respiration       1.224e-01   4.912e-01   CH2O                      0
	Tot              -1.226e-01   2.299e+01   CH2O                      0
	Salt              9.753e-04   2.960e-03   CH2O                      0
	                                          Ca+2                     -2
	                                          Cl-                     -20
	                                          HCO3                     -3
	                                          K+                       -1
	                                          Mg+2                     -4
	                                          Na+                     -25
	                                          Nitrate                  -5
	                                          Sulfate                  -5
	Caero             5.797e-06   2.587e-02   CH2O                      0
	Csulr             3.325e-04   4.052e-04   CH2O                      0
	Cmeth            -0.000e+00   0.000e+00   CH2O                      0

-----------------------------------Gas phase-----------------------------------

Total pressure:  0.01      atmospheres 
    Gas volume:   9.00e-01 liters
  Molar volume:   2.17e+03 liters/mole

                                                        Moles in gas
                                            ----------------------------------
Component                log P           P     Initial       Final       Delta

redoxCH4(g)              -3.41   3.894e-04   1.432e-05   1.433e-05   4.771e-09
redoxCO2(g)              -1.96   1.090e-02   3.467e-04   4.009e-04   5.417e-05
redoxO2(g)               -6.69   2.041e-07   3.205e-07   7.506e-09  -3.129e-07

-------------------------------Phase assemblage--------------------------------

                                                      Moles in assemblage
Phase               SI  log IAP  log K(T, P)   Initial       Final       Delta

Hydroxyapatite    0.00    -3.42     -3.42    3.792e-04   4.444e-04   6.515e-05
redoxCalcite     -1.51    -9.99     -8.48    0.000e+00           0   0.000e+00
redoxFe(OH)3(a)    0.00     4.89      4.89    2.005e+00   2.005e+00   5.383e-08
redoxFeS(ppt)    -2.11    -6.03     -3.92    0.000e+00           0   0.000e+00
redoxPyrite       0.00   -18.48    -18.48    1.392e-03   1.408e-03   1.581e-05

------------------------------Surface composition------------------------------

Diffuse Double Layer Surface-Complexation Model

H             
	 -1.553e-09  Surface + diffuse layer charge, eq
	 -6.070e-01  Surface charge, eq
	 -2.143e-02  sigma, C/m²
	 -7.405e-02  psi, V
	  2.882e+00  -F*psi/RT
	  1.785e+01  exp(-F*psi/RT)
	  3.417e+04  specific area, m²/g
	  2.734e+06  m² for   8.000e+01 g

	Water in diffuse layer: 2.734e+01 kg, 94.2% of total DDL-water.

	Total moles in diffuse layer (excluding water), Donnan calculation.
	Donnan Layer potential, psi_DL = -2.041e-02 V.
	Boltzmann factor, exp(-psi_DL * F / RT) = 2.213e+00 (= c_DL / c_free if z is +1).

	Element       	     Moles
	Alanine       	  1.3907e-04
	Amm           	  6.4188e-03
	C             	  1.8569e-02
	Ca            	  2.2051e-01
	Cl            	  3.1292e-02
	Cysteine      	  1.4018e-04
	Ferric        	  3.8156e-06
	Ferrous       	  1.6102e-05
	Glutamine     	  1.3894e-04
	Glycine       	  3.3426e-04
	H             	  1.4541e-01
	K             	  5.0179e-03
	Methane       	  1.4667e-05
	Mg            	  9.4949e-02
	Na            	  2.9530e-02
	Nitrate       	  7.6096e-03
	O             	  1.0193e-01
	Ozero         	  1.4266e-08
	P             	  1.2985e-03
	Sulfate       	  7.0795e-03
	Sulfide       	  2.8404e-04
	Threonine     	  1.3894e-04
	Tyrosine      	  1.3894e-04

H_a           
	  3.837e-02  moles
	                                   Mole                     Log
	Species               Moles    Fraction    Molality    Molality

	H_a-              3.792e-02       0.988   2.010e-02      -1.697
	H_aCa+            3.322e-04       0.009   1.762e-04      -3.754
	H_aMg+            1.140e-04       0.003   6.044e-05      -4.219
	H_aH              7.662e-06       0.000   4.063e-06      -5.391

H_ab          
	  6.378e-02  moles
	                                   Mole                     Log
	Species               Moles    Fraction    Molality    Molality

	H_ab-2            6.339e-02       0.994   3.361e-02      -1.473
	H_abCa            1.756e-04       0.003   9.314e-05      -4.031
	H_abH-            1.650e-04       0.003   8.751e-05      -4.058
	H_abMg            4.787e-05       0.001   2.538e-05      -4.595
	H_abH2            3.335e-08       0.000   1.768e-08      -7.752

H_ad          
	  6.378e-02  moles
	                                   Mole                     Log
	Species               Moles    Fraction    Molality    Molality

	H_ad-2            3.125e-02       0.490   1.657e-02      -1.781
	H_adCa            1.470e-02       0.231   7.797e-03      -2.108
	H_adH-            1.382e-02       0.217   7.326e-03      -2.135
	H_adMg            4.008e-03       0.063   2.125e-03      -2.673
	H_adH2            2.792e-06       0.000   1.480e-06      -5.830

H_af          
	  6.378e-02  moles
	                                   Mole                     Log
	Species               Moles    Fraction    Molality    Molality

	H_afH-            5.822e-02       0.913   3.087e-02      -1.510
	H_afCa            5.523e-03       0.087   2.929e-03      -2.533
	H_af-2            2.136e-05       0.000   1.132e-05      -4.946
	H_afH2            1.177e-05       0.000   6.239e-06      -5.205
	H_afMg            2.556e-06       0.000   1.355e-06      -5.868

H_ah          
	  6.378e-02  moles
	                                   Mole                     Log
	Species               Moles    Fraction    Molality    Molality

	H_ahH-            6.375e-02       1.000   3.381e-02      -1.471
	H_ahH2            1.288e-05       0.000   6.831e-06      -5.165
	H_ahCa            1.075e-05       0.000   5.703e-06      -5.244
	H_ahMg            2.799e-06       0.000   1.484e-06      -5.828
[...]
	Species               Moles    Fraction    Molality    Molality

	H_fH              1.903e-02       0.991   1.028e-02      -1.988
	H_fCa+            1.053e-04       0.005   5.689e-05      -4.245
	H_fMg+            3.733e-05       0.002   2.017e-05      -4.695
	H_f-              2.166e-05       0.001   1.170e-05      -4.932

H_g           
	  1.919e-02  moles
	                                   Mole                     Log
	Species               Moles    Fraction    Molality    Molality

	H_gH              1.905e-02       0.993   1.029e-02      -1.987
	H_gCa+            1.054e-04       0.005   5.695e-05      -4.244
	H_gMg+            3.737e-05       0.002   2.020e-05      -4.695
	H_g-              3.134e-07       0.000   1.694e-07      -6.771

H_h           
	  1.919e-02  moles
	                                   Mole                     Log
	Species               Moles    Fraction    Molality    Molality

	H_hH              1.905e-02       0.993   1.029e-02      -1.987
	H_hCa+            1.054e-04       0.005   5.695e-05      -4.244
	H_hMg+            3.737e-05       0.002   2.020e-05      -4.695
	H_h-              4.530e-09       0.000   2.448e-09      -8.611

Hfo           
	  2.766e-14  Surface + diffuse layer charge, eq
	  4.974e-05  Surface charge, eq
	  2.857e-05  sigma, C/m²
	  3.955e-05  psi, V
	 -1.539e-03  -F*psi/RT
	  9.985e-01  exp(-F*psi/RT)
	  6.000e+02  specific area, m²/g
	  1.680e+05  m² for   2.800e+02 g

	Water in diffuse layer: 1.680e+00 kg,  5.8% of total DDL-water.

	Total moles in diffuse layer (excluding water), Donnan calculation.
	Donnan Layer potential, psi_DL =  3.797e-06 V.
	Boltzmann factor, exp(-psi_DL * F / RT) = 9.999e-01 (= c_DL / c_free if z is +1).

	Element       	     Moles
	Alanine       	  1.5378e-05
	Amm           	  5.2619e-04
	C             	  1.9413e-02
	Ca            	  3.4179e-02
	Cl            	  7.6074e-02
	Cysteine      	  1.5415e-05
	Ferric        	  2.0395e-07
	Ferrous       	  5.5034e-08
	Glutamine     	  1.5374e-05
	Glycine       	  2.6132e-05
	H             	  2.6359e-01
	K             	  1.1068e-03
	Methane       	  1.0077e-03
	Mg            	  1.5971e-02
	Na            	  2.6435e-02
	Nitrate       	  1.9002e-02
	O             	  1.4671e-01
	Ozero         	  1.8274e-11
	P             	  3.6785e-05
	Sulfate       	  9.8537e-03
	Sulfide       	  8.4049e-03
	Threonine     	  1.5374e-05
	Tyrosine      	  1.5374e-05

Hfo_s         
	  5.000e-06  moles
	                                   Mole                     Log
	Species               Moles    Fraction    Molality    Molality

	Hfo_sOHCa+2       4.924e-06       0.985   2.661e-06      -5.575
	Hfo_sOH2+         6.808e-08       0.014   3.680e-08      -7.434
	Hfo_sOH           7.462e-09       0.001   4.033e-09      -8.394
	Hfo_sO-           1.874e-11       0.000   1.013e-11     -10.995
	Hfo_sOFerrous+    6.657e-14       0.000   3.598e-14     -13.444

Hfo_w         
	  2.000e-04  moles
	                                   Mole                     Log
	Species               Moles    Fraction    Molality    Molality

	Hfo_wOH2+         1.025e-04       0.512   5.537e-05      -4.257
	Hfo_wHPO4-        5.895e-05       0.295   3.186e-05      -4.497
	Hfo_wH2PO4        2.191e-05       0.110   1.184e-05      -4.927
	Hfo_wOH           1.123e-05       0.056   6.069e-06      -5.217
	Hfo_wPO4-2        2.693e-06       0.013   1.456e-06      -5.837
	Hfo_wOMg+         2.039e-06       0.010   1.102e-06      -5.958
	Hfo_wSulfateO4-   3.789e-07       0.002   2.048e-07      -6.689
	Hfo_wOCa+         2.397e-07       0.001   1.296e-07      -6.888
	Hfo_wOHSulfateO4-2   8.260e-08       0.000   4.464e-08      -7.350
	Hfo_wO-           2.819e-08       0.000   1.524e-08      -7.817
	Hfo_wOFerrous+    9.349e-13       0.000   5.053e-13     -12.296
	Hfo_wOFerrousOH   5.360e-15       0.000   2.897e-15     -14.538

-----------------------------Exchange composition------------------------------

X                1.600e+01 mol

	                               Equiv-    Equivalent      Log 
	Species             Moles      alents      Fraction     Gamma

	CaX2              4.612e+00   9.224e+00   5.765e-01    -0.000
	MgX2              2.777e+00   5.555e+00   3.472e-01    -0.000
	NaX               1.112e+00   1.112e+00   6.950e-02    -0.000
	KX                7.204e-02   7.204e-02   4.502e-03    -0.000
	AmmH4X            3.717e-02   3.717e-02   2.323e-03    -0.000
	HX                5.168e-04   5.168e-04   3.230e-05    -0.083
	FerrousX2         6.646e-08   1.329e-07   8.307e-09    -0.398

-----------------------------Solution composition------------------------------

	Elements           Molality       Moles

	Alanine           9.151e-06   1.693e-05
	Amm               3.133e-04   5.796e-04
	C                 1.155e-02   2.138e-02
	Ca                2.035e-02   3.765e-02
	Cl                4.528e-02   8.377e-02
	Cysteine          9.173e-06   1.697e-05
	Ferric            1.214e-07   2.246e-07
	Ferrous           3.276e-08   6.061e-08
	Glutamine         9.148e-06   1.693e-05
	Glycine           1.555e-05   2.878e-05
	K                 6.589e-04   1.219e-03
	Methane           5.998e-04   1.110e-03
	Mg                9.509e-03   1.759e-02
	Na                1.574e-02   2.912e-02
	Nitrate           1.131e-02   2.092e-02
	Ozero             1.088e-11   2.013e-11
	P                 2.189e-05   4.051e-05
	Sulfate           5.864e-03   1.085e-02
	Sulfide           5.003e-03   9.256e-03
	Threonine         9.148e-06   1.693e-05
	Tyrosine          9.148e-06   1.693e-05

----------------------------Description of solution----------------------------

                                       pH  =   6.329      Charge balance
                                       pe  =  -7.328      Adjusted to redox equilibrium
      Specific Conductance (µS/cm,  25°C)  = 7028
                        Activity of water  =   0.997
                 Ionic strength (mol/kgw)  =   1.001e-01
                       Mass of water (kg)  =   1.850e+00
                 Total alkalinity (eq/kg)  =   8.047e-03
                       Total CO2 (mol/kg)  =   1.155e-02
                         Temperature (°C)  =  25.00
                           Pressure (atm)  =  0.59
                  Electrical balance (eq)  =  -4.209e-08
 Percent error, 100*(Cat-|An|)/(Cat+|An|)  =  -0.00
                               Iterations  = 248
                                  Total H  = 2.056910e+02
                                  Total O  = 1.028619e+02

----------------------------Distribution of species----------------------------

                                               Log       Log       Log    mole V
   Species          Molality    Activity  Molality  Activity     Gamma   cm³/mol

   H+              5.678e-07   4.687e-07    -6.246    -6.329    -0.083      0.00
   OH-             2.796e-08   2.129e-08    -7.553    -7.672    -0.118     (0)  
   H2O             5.551e+01   9.967e-01     1.744    -0.001     0.000     18.07
Alanine       9.151e-06
   Alanine-2       9.145e-06   3.405e-06    -5.039    -5.468    -0.429     (0)  
   H2(Alanine)     5.418e-09   5.544e-09    -8.266    -8.256     0.010     (0)  
   H(Alanine)-     4.573e-10   3.573e-10    -9.340    -9.447    -0.107     (0)  
Amm           3.133e-04
   AmmH4+          3.085e-04   2.297e-04    -3.511    -3.639    -0.128     (0)  
   AmmH4SulfateO4-   4.505e-06   3.519e-06    -5.346    -5.454    -0.107     (0)  
   AmmH3           2.729e-07   2.793e-07    -6.564    -6.554     0.010     (0)  
C(4)          1.155e-02
   HCO3-           5.921e-03   4.667e-03    -2.228    -2.331    -0.103     (0)  
   CO2             4.821e-03   4.934e-03    -2.317    -2.307     0.010     (0)  
   CaHCO3+         5.358e-04   4.223e-04    -3.271    -3.374    -0.103     (0)  
   MgHCO3+         2.372e-04   1.853e-04    -3.625    -3.732    -0.107     (0)  
   NaHCO3          3.133e-05   3.206e-05    -4.504    -4.494     0.010     (0)  
   CaCO3           5.438e-06   5.565e-06    -5.265    -5.255     0.010     (0)  
   MgCO3           1.478e-06   1.512e-06    -5.830    -5.820     0.010     (0)  
   CO3-2           1.210e-06   4.670e-07    -5.917    -6.331    -0.413     (0)  
   NaCO3-          1.360e-07   1.062e-07    -6.866    -6.974    -0.107     (0)  
   FerrousHCO3+    2.230e-11   1.742e-11   -10.652   -10.759    -0.107     (0)  
   FerrousCO3      4.086e-13   4.181e-13   -12.389   -12.379     0.010     (0)  
Ca            2.035e-02
   Ca+2            1.816e-02   7.093e-03    -1.741    -2.149    -0.408     (0)  
   CaSulfateO4     1.645e-03   1.683e-03    -2.784    -2.774     0.010     (0)  
   CaHCO3+         5.358e-04   4.223e-04    -3.271    -3.374    -0.103     (0)  
   CaCO3           5.438e-06   5.565e-06    -5.265    -5.255     0.010     (0)  
   CaHPO4          3.829e-06   3.918e-06    -5.417    -5.407     0.010     (0)  
   CaH2PO4+        1.767e-06   1.380e-06    -5.753    -5.860    -0.107     (0)  
   CaPO4-          2.532e-08   1.978e-08    -7.597    -7.704    -0.107     (0)  
   CaHSulfateO4+   5.916e-09   4.621e-09    -8.228    -8.335    -0.107     (0)  
   CaOH+           3.205e-09   2.504e-09    -8.494    -8.601    -0.107     (0)  
Cl            4.528e-02
   Cl-             4.528e-02   3.460e-02    -1.344    -1.461    -0.117     (0)  
   FerrousCl+      2.282e-12   1.782e-12   -11.642   -11.749    -0.107     (0)  
   FerricCl+2      2.269e-14   8.450e-15   -13.644   -14.073    -0.429     (0)  
   FerricCl2+      1.672e-15   1.306e-15   -14.777   -14.884    -0.107     (0)  
   FerricCl3       4.415e-18   4.518e-18   -17.355   -17.345     0.010     (0)  
Cysteine      9.173e-06
   Cysteine-2      9.129e-06   3.399e-06    -5.040    -5.469    -0.429     (0)  
   H2(Cysteine)    4.396e-08   4.498e-08    -7.357    -7.347     0.010     (0)  
   H(Cysteine)-    1.046e-10   8.170e-11    -9.981   -10.088    -0.107     (0)  
Ferric        1.214e-07
   Ferric(OH)2+    1.001e-07   7.821e-08    -6.999    -7.107    -0.107     (0)  
   Ferric(OH)3     2.094e-08   2.143e-08    -7.679    -7.669     0.010     (0)  
   FerricOH+2      2.983e-10   1.111e-10    -9.525    -9.954    -0.429     (0)  
   Ferric(OH)4-    5.321e-11   4.157e-11   -10.274   -10.381    -0.107     (0)  
   FerricSulfateO4+   1.350e-13   1.055e-13   -12.870   -12.977    -0.107     (0)  
   Ferric+3        4.552e-14   8.087e-15   -13.342   -14.092    -0.750     (0)  
   FerricH2PO4+2   4.445e-14   1.655e-14   -13.352   -13.781    -0.429     (0)  
   FerricCl+2      2.269e-14   8.450e-15   -13.644   -14.073    -0.429     (0)  
   Ferric(SulfateO4)2-   3.513e-15   2.744e-15   -14.454   -14.562    -0.107     (0)  
   FerricHPO4+     2.807e-15   2.193e-15   -14.552   -14.659    -0.107     (0)  
   FerricCl2+      1.672e-15   1.306e-15   -14.777   -14.884    -0.107     (0)  
   Ferric2(OH)2+4   1.727e-17   3.319e-19   -16.763   -18.479    -1.716     (0)  
   FerricCl3       4.415e-18   4.518e-18   -17.355   -17.345     0.010     (0)  
   FerricHSulfateO4+2   3.555e-19   1.323e-19   -18.449   -18.878    -0.429     (0)  
   Ferric3(OH)4+5   2.606e-21   5.424e-24   -20.584   -23.266    -2.682     (0)  
Ferrous       3.276e-08
   Ferrous(HSulfide)2   2.877e-08   2.944e-08    -7.541    -7.531     0.010     (0)  
   Ferrous(HSulfide)3-   3.861e-09   3.016e-09    -8.413    -8.521    -0.107     (0)  
   Ferrous+2       9.322e-11   3.732e-11   -10.030   -10.428    -0.398     (0)  
   FerrousHCO3+    2.230e-11   1.742e-11   -10.652   -10.759    -0.107     (0)  
   FerrousSulfateO4   7.713e-12   7.893e-12   -11.113   -11.103     0.010     (0)  
   FerrousCl+      2.282e-12   1.782e-12   -11.642   -11.749    -0.107     (0)  
   FerrousCO3      4.086e-13   4.181e-13   -12.389   -12.379     0.010     (0)  
   FerrousH2PO4+   1.821e-13   1.422e-13   -12.740   -12.847    -0.107     (0)  
   FerrousHPO4     1.463e-13   1.497e-13   -12.835   -12.825     0.010     (0)  
   FerrousOH+      3.213e-14   2.510e-14   -13.493   -13.600    -0.107     (0)  
   FerrousHSulfateO4+   3.113e-17   2.432e-17   -16.507   -16.614    -0.107     (0)  
Glutamine     9.148e-06
   Glutamine-2     9.147e-06   3.406e-06    -5.039    -5.468    -0.429     (0)  
   H2(Glutamine)   9.861e-10   1.009e-09    -9.006    -8.996     0.010     (0)  
   H(Glutamine)-   3.022e-10   2.361e-10    -9.520    -9.627    -0.107     (0)  
Glycine       1.555e-05
   Glycine-        1.554e-05   1.214e-05    -4.809    -4.916    -0.107     (0)  
   H2(Glycine)+    1.359e-08   1.061e-08    -7.867    -7.974    -0.107     (0)  
   H(Glycine)      1.216e-09   1.244e-09    -8.915    -8.905     0.010     (0)  
H(0)          1.377e-01
   H2              6.886e-02   7.046e-02    -1.162    -1.152     0.010     (0)  
K             6.589e-04
   K+              6.536e-04   4.994e-04    -3.185    -3.302    -0.117     (0)  
   KSulfateO4-     5.343e-06   4.173e-06    -5.272    -5.380    -0.107     (0)  
   KHPO4-          1.256e-09   9.810e-10    -8.901    -9.008    -0.107     (0)  
   KOH             3.599e-12   3.683e-12   -11.444   -11.434     0.010     (0)  
Methane       5.998e-04
   MethaneH4       5.998e-04   6.138e-04    -3.222    -3.212     0.010     (0)  
Mg            9.509e-03
   Mg+2            8.342e-03   3.393e-03    -2.079    -2.469    -0.391     (0)  
   MgSulfateO4     9.245e-04   9.460e-04    -3.034    -3.024     0.010     (0)  
   MgHCO3+         2.372e-04   1.853e-04    -3.625    -3.732    -0.107     (0)  
   MgHPO4          2.476e-06   2.534e-06    -5.606    -5.596     0.010     (0)  
   MgCO3           1.478e-06   1.512e-06    -5.830    -5.820     0.010     (0)  
   MgH2PO4+        1.076e-06   8.407e-07    -5.968    -6.075    -0.107     (0)  
   MgOH+           3.354e-08   2.620e-08    -7.474    -7.582    -0.107     (0)  
   MgPO4-          1.634e-08   1.276e-08    -7.787    -7.894    -0.107     (0)  
Na            1.574e-02
   Na+             1.561e-02   1.222e-02    -1.807    -1.913    -0.106     (0)  
   NaSulfateO4-    9.323e-05   7.283e-05    -4.030    -4.138    -0.107     (0)  
   NaHCO3          3.133e-05   3.206e-05    -4.504    -4.494     0.010     (0)  
   NaCO3-          1.360e-07   1.062e-07    -6.866    -6.974    -0.107     (0)  
   NaHPO4-         3.072e-08   2.400e-08    -7.513    -7.620    -0.107     (0)  
   NaOH            1.678e-10   1.717e-10    -9.775    -9.765     0.010     (0)  
Nitrate       1.131e-02
   NitrateO3-      1.131e-02   8.834e-03    -1.947    -2.054    -0.107     (0)  
O(0)          0.000e+00
   O2              0.000e+00   0.000e+00   -90.089   -90.079     0.010     (0)  
Ozero         1.088e-11
   Ozero2          5.439e-12   5.566e-12   -11.265   -11.254     0.010     (0)  
P             2.189e-05
   H2PO4-          9.795e-06   7.604e-06    -5.009    -5.119    -0.110     (0)  
   CaHPO4          3.829e-06   3.918e-06    -5.417    -5.407     0.010     (0)  
   HPO4-2          2.878e-06   1.007e-06    -5.541    -5.997    -0.456     (0)  
   MgHPO4          2.476e-06   2.534e-06    -5.606    -5.596     0.010     (0)  
   CaH2PO4+        1.767e-06   1.380e-06    -5.753    -5.860    -0.107     (0)  
   MgH2PO4+        1.076e-06   8.407e-07    -5.968    -6.075    -0.107     (0)  
   NaHPO4-         3.072e-08   2.400e-08    -7.513    -7.620    -0.107     (0)  
   CaPO4-          2.532e-08   1.978e-08    -7.597    -7.704    -0.107     (0)  
   MgPO4-          1.634e-08   1.276e-08    -7.787    -7.894    -0.107     (0)  
   KHPO4-          1.256e-09   9.810e-10    -8.901    -9.008    -0.107     (0)  
   PO4-3           1.028e-11   9.690e-13   -10.988   -12.014    -1.026     (0)  
   FerrousH2PO4+   1.821e-13   1.422e-13   -12.740   -12.847    -0.107     (0)  
   FerrousHPO4     1.463e-13   1.497e-13   -12.835   -12.825     0.010     (0)  
   FerricH2PO4+2   4.445e-14   1.655e-14   -13.352   -13.781    -0.429     (0)  
   FerricHPO4+     2.807e-15   2.193e-15   -14.552   -14.659    -0.107     (0)  
Sulfate       5.864e-03
   SulfateO4-2     3.192e-03   1.189e-03    -2.496    -2.925    -0.429     (0)  
   CaSulfateO4     1.645e-03   1.683e-03    -2.784    -2.774     0.010     (0)  
   MgSulfateO4     9.245e-04   9.460e-04    -3.034    -3.024     0.010     (0)  
   NaSulfateO4-    9.323e-05   7.283e-05    -4.030    -4.138    -0.107     (0)  
   KSulfateO4-     5.343e-06   4.173e-06    -5.272    -5.380    -0.107     (0)  
   AmmH4SulfateO4-   4.505e-06   3.519e-06    -5.346    -5.454    -0.107     (0)  
   HSulfateO4-     6.937e-08   5.419e-08    -7.159    -7.266    -0.107     (0)  
   CaHSulfateO4+   5.916e-09   4.621e-09    -8.228    -8.335    -0.107     (0)  
   FerrousSulfateO4   7.713e-12   7.893e-12   -11.113   -11.103     0.010     (0)  
   FerricSulfateO4+   1.350e-13   1.055e-13   -12.870   -12.977    -0.107     (0)  
   Ferric(SulfateO4)2-   3.513e-15   2.744e-15   -14.454   -14.562    -0.107     (0)  
   FerrousHSulfateO4+   3.113e-17   2.432e-17   -16.507   -16.614    -0.107     (0)  
   FerricHSulfateO4+2   3.555e-19   1.323e-19   -18.449   -18.878    -0.429     (0)  
Sulfide       5.003e-03
   H2Sulfide       3.767e-03   3.855e-03    -2.424    -2.414     0.010     (0)  
   HSulfide-       1.235e-03   9.408e-04    -2.908    -3.027    -0.118     (0)  
   Ferrous(HSulfide)2   2.877e-08   2.944e-08    -7.541    -7.531     0.010     (0)  
   Ferrous(HSulfide)3-   3.861e-09   3.016e-09    -8.413    -8.521    -0.107     (0)  
   Sulfide-2       6.448e-10   2.425e-10    -9.191    -9.615    -0.425     (0)  
Threonine     9.148e-06
   Threonine-2     9.147e-06   3.406e-06    -5.039    -5.468    -0.429     (0)  
   H2(Threonine)   9.636e-10   9.861e-10    -9.016    -9.006     0.010     (0)  
   H(Threonine)-   2.886e-10   2.255e-10    -9.540    -9.647    -0.107     (0)  
Tyrosine      9.148e-06
   Tyrosine-2      9.147e-06   3.406e-06    -5.039    -5.468    -0.429     (0)  
   H2(Tyrosine)    9.417e-10   9.637e-10    -9.026    -9.016     0.010     (0)  
   H(Tyrosine)-    3.238e-10   2.530e-10    -9.490    -9.597    -0.107     (0)  

------------------------------Saturation indices-------------------------------

  Phase               SI** log IAP   log K(298 K,   1 atm)

  FixpH            -6.33     -6.33    0.00  H+
  H2(g)             2.00     -1.15   -3.15  H2
  H2O(g)           -1.51     -0.00    1.51  H2O
  Halite           -4.96     -3.37    1.58  NaCl
  Hydroxyapatite   -0.00     -3.42   -3.42  Ca5(PO4)3OH
  ORM             741.31   -137.92 -879.23  C5H4O2Amm
  redoxAnhydrite   -0.71     -5.07   -4.36  CaSulfateO4
  redoxAragonite   -0.14     -8.48   -8.34  CaCO3
  redoxCalcite      0.00     -8.48   -8.48  CaCO3
  redoxCH4(g)      -0.35     -3.21   -2.86  MethaneH4
  redoxCO2(g)      -0.84     -2.31   -1.47  CO2
  redoxDolomite    -0.19    -17.28  -17.09  CaMg(CO3)2
  redoxFe(OH)3(a)   0.00      4.89    4.89  Ferric(OH)3
  redoxFeS(ppt)    -3.21     -7.13   -3.92  FerrousSulfide
  redoxGoethite     5.89      4.89   -1.00  FerricOOH
  redoxGypsum      -0.50     -5.08   -4.58  CaSulfateO4:2H2O
  redoxH2S(g)      -1.42     -2.41   -1.00  H2Sulfide
  redoxHematite    13.79      9.79   -4.01  Ferric2O3
  redoxJarosite-K  -4.25    -13.46   -9.21  KFerric3(SulfateO4)2(OH)6
  redoxMackinawite  -2.48     -7.13   -4.65  FerrousSulfide
  redoxMelanterite -11.15    -13.36   -2.21  FerrousSulfateO4:7H2O
  redoxNH3(g)      -8.32     -6.55    1.77  AmmH3
  redoxO2(g)       -8.36    -11.25   -2.89  Ozero2
  redoxPyrite       0.00    -18.48  -18.48  FerrousSulfide2
  redoxSiderite    -5.87    -16.76  -10.89  FerrousCO3
  redoxSulfur      -9.29     -4.41    4.88  Sulfide
  redoxVivianite  -19.32    -55.32  -36.00  Ferrous3(PO4)2:8H2O

**For a gas, SI = log10(fugacity). Fugacity = pressure * phi / 1 atm.
  For ideal gases, phi = 1.

------------------
End of simulation.
------------------

------------------------------------
Reading input data for simulation 4.
------------------------------------

---------------------------------
End of Run after 103.482 Seconds.
---------------------------------

