   Input file: fixp_redox_sw1.phrq
  Output file: fixp_redox_sw1.phrq.out
Database file: ../database/redox.dat

------------------
Reading data base.
------------------

	SOLUTION_MASTER_SPECIES
	SOLUTION_SPECIES
	PHASES
	EXCHANGE_MASTER_SPECIES
	EXCHANGE_SPECIES
	SURFACE_MASTER_SPECIES
	SURFACE_SPECIES
	RATES
	END
------------------------------------
Reading input data for simulation 1.
------------------------------------

	DATABASE ../database/redox.dat
	TITLE  MEND and redox coupling
	CALCULATE_VALUES
	SC_T25
	 start
	 10 sc25 = SC/(1+0.021*(temperature-25))   #in us/cm
	 20 SAVE sc25
	 end
	fsl1    ##more sensitive (green)
	 start
	 10 fsl1 = 1 / (1.0 + exp(1.68 * (log10(CALC_VALUE("SC_T25")/1000)+0.26))) #log(ds/m)
	 40 SAVE fsl1
	 end
	fsl2     ##medium (purple)
	 start
	 10 fsl2 = 1 / (1.0 + exp(2.28 * (log10(CALC_VALUE("SC_T25")/1000)-0.60)))  #log(ds/m)
	 40 SAVE fsl2
	 end
	fsl3     ##medium (red)
	 start
	 10 fsl3 = 1 / (1.0 + exp(2.23 * (log10(CALC_VALUE("SC_T25")/1000)-1.11)))  #log(ds/m)
	 40 SAVE fsl3
	 end
	fsl4    ##more resistant (black)
	 start
	 10 fsl4 = 1 / (1.0 + exp(4.03 * (log10(CALC_VALUE("SC_T25")/1000)-1.78)))  #log(ds/m)
	 40 SAVE fsl4
	 end
	SOLUTION 1    
	units umol/L        #3.774L total volume  ##based on clay fresh system
	pH    7  charge
	temperature 	 25
	water         1.887   #default is 1 kg
	P           5
	Amm         38
	Na          114
	Ca          183
	Cl          133 
	Sulfate     4 
	K           28
	Mg          79
	C(4)        9  
	Nitrate        0
	Ferric       50
	Alanine      52
	Cysteine     52
	Glycine      52
	Glutamine    52
	Threonine    52
	Tyrosine     52
	Ozero        600    redoxO2(g) -0.7
	Methane      1
	Sulfide      0.1
	  SAVE SOLUTION 1
	END
-----
TITLE
-----

  MEND and redox coupling

-------------------------------------------
Beginning of initial solution calculations.
-------------------------------------------

Initial solution 1.	

-----------------------------Solution composition------------------------------

	Elements           Molality       Moles

	Alanine           5.200e-05   9.813e-05
	Amm               3.800e-05   7.171e-05
	C(4)              9.001e-06   1.698e-05
	Ca                1.830e-04   3.453e-04
	Cl                1.330e-04   2.510e-04
	Cysteine          5.200e-05   9.813e-05
	Ferric            5.000e-05   9.436e-05
	Glutamine         5.200e-05   9.813e-05
	Glycine           5.200e-05   9.813e-05
	K                 2.800e-05   5.284e-05
	Methane           1.000e-06   1.887e-06
	Mg                7.901e-05   1.491e-04
	Na                1.140e-04   2.151e-04
	Ozero             5.111e-04   9.645e-04  Equilibrium with redoxO2(g)
	P                 5.000e-06   9.436e-06
	Sulfate           4.000e-06   7.549e-06
	Sulfide           1.000e-07   1.887e-07
	Threonine         5.200e-05   9.813e-05
	Tyrosine          5.200e-05   9.813e-05

----------------------------Description of solution----------------------------

                                       pH  =   6.951      Charge balance
                                       pe  =   4.000    
      Specific Conductance (µS/cm,  25°C)  = 49
                        Activity of water  =   1.000
                 Ionic strength (mol/kgw)  =   1.254e-03
                       Mass of water (kg)  =   1.887e+00
                 Total alkalinity (eq/kg)  =   3.480e-04
                       Total CO2 (mol/kg)  =   9.001e-06
                         Temperature (°C)  =  25.00
                  Electrical balance (eq)  =   1.862e-17
 Percent error, 100*(Cat-|An|)/(Cat+|An|)  =   0.00
                               Iterations  =   8
                                  Total H  = 2.094810e+02
                                  Total O  = 1.047406e+02

----------------------------Distribution of species----------------------------

                                               Log       Log       Log    mole V
   Species          Molality    Activity  Molality  Activity     Gamma   cm³/mol

   H+              1.163e-07   1.120e-07    -6.935    -6.951    -0.016      0.00
   OH-             9.305e-08   8.941e-08    -7.031    -7.049    -0.017     (0)  
   H2O             5.551e+01   1.000e+00     1.744    -0.000     0.000     18.07
Alanine       5.200e-05
   Alanine-2       5.200e-05   4.436e-05    -4.284    -4.353    -0.069     (0)  
   H2(Alanine)     4.121e-09   4.123e-09    -8.385    -8.385     0.000     (0)  
   H(Alanine)-     1.157e-09   1.112e-09    -8.937    -8.954    -0.017     (0)  
Amm           3.800e-05
   AmmH4+          3.782e-05   3.632e-05    -4.422    -4.440    -0.018     (0)  
   AmmH3           1.848e-07   1.848e-07    -6.733    -6.733     0.000     (0)  
   AmmH4SulfateO4-   1.598e-09   1.536e-09    -8.796    -8.814    -0.017     (0)  
C(4)          9.001e-06
   HCO3-           7.227e-06   6.949e-06    -5.141    -5.158    -0.017     (0)  
   CO2             1.749e-06   1.750e-06    -5.757    -5.757     0.000     (0)  
   CaHCO3+         1.441e-08   1.385e-08    -7.841    -7.858    -0.017     (0)  
   MgHCO3+         5.710e-09   5.487e-09    -8.243    -8.261    -0.017     (0)  
   CO3-2           3.404e-09   2.911e-09    -8.468    -8.536    -0.068     (0)  
   CaCO3           7.637e-10   7.639e-10    -9.117    -9.117     0.000     (0)  
   NaHCO3          4.281e-10   4.283e-10    -9.368    -9.368     0.000     (0)  
   MgCO3           1.874e-10   1.874e-10    -9.727    -9.727     0.000     (0)  
   NaCO3-          6.180e-12   5.940e-12   -11.209   -11.226    -0.017     (0)  
Ca            1.830e-04
   Ca+2            1.827e-04   1.562e-04    -3.738    -3.806    -0.068     (0)  
   CaHPO4          1.339e-07   1.339e-07    -6.873    -6.873     0.000     (0)  
   CaSulfateO4     1.023e-07   1.023e-07    -6.990    -6.990     0.000     (0)  
   CaHCO3+         1.441e-08   1.385e-08    -7.841    -7.858    -0.017     (0)  
   CaH2PO4+        1.173e-08   1.127e-08    -7.931    -7.948    -0.017     (0)  
   CaPO4-          2.944e-09   2.829e-09    -8.531    -8.548    -0.017     (0)  
   CaCO3           7.637e-10   7.639e-10    -9.117    -9.117     0.000     (0)  
   CaOH+           2.410e-10   2.316e-10    -9.618    -9.635    -0.017     (0)  
   CaHSulfateO4+   6.984e-14   6.712e-14   -13.156   -13.173    -0.017     (0)  
Cl            1.330e-04
   Cl-             1.330e-04   1.278e-04    -3.876    -3.893    -0.017     (0)  
   FerricCl+2      6.028e-16   5.142e-16   -15.220   -15.289    -0.069     (0)  
   FerricCl2+      3.055e-19   2.936e-19   -18.515   -18.532    -0.017     (0)  
   FerricCl3       3.751e-24   3.752e-24   -23.426   -23.426     0.000     (0)  
Cysteine      5.200e-05
   Cysteine-2      5.197e-05   4.433e-05    -4.284    -4.353    -0.069     (0)  
   H2(Cysteine)    3.348e-08   3.349e-08    -7.475    -7.475     0.000     (0)  
   H(Cysteine)-    2.649e-10   2.546e-10    -9.577    -9.594    -0.017     (0)  
Ferric        5.000e-05
   Ferric(OH)3     2.613e-05   2.614e-05    -4.583    -4.583     0.000     (0)  
   Ferric(OH)2+    2.364e-05   2.272e-05    -4.626    -4.644    -0.017     (0)  
   Ferric(OH)4-    2.215e-07   2.129e-07    -6.655    -6.672    -0.017     (0)  
   FerricOH+2      9.006e-09   7.683e-09    -8.045    -8.114    -0.069     (0)  
   Ferric+3        1.870e-13   1.332e-13   -12.728   -12.875    -0.147     (0)  
   FerricH2PO4+2   1.185e-13   1.011e-13   -12.926   -12.995    -0.069     (0)  
   FerricHPO4+     5.833e-14   5.605e-14   -13.234   -13.251    -0.017     (0)  
   FerricSulfateO4+   4.990e-15   4.795e-15   -14.302   -14.319    -0.017     (0)  
   Ferric2(OH)2+4   3.000e-15   1.589e-15   -14.523   -14.799    -0.276     (0)  
   FerricCl+2      6.028e-16   5.142e-16   -15.220   -15.289    -0.069     (0)  
   Ferric3(OH)4+5   2.036e-17   7.541e-18   -16.691   -17.123    -0.431     (0)  
   Ferric(SulfateO4)2-   3.583e-19   3.444e-19   -18.446   -18.463    -0.017     (0)  
   FerricCl2+      3.055e-19   2.936e-19   -18.515   -18.532    -0.017     (0)  
   FerricHSulfateO4+2   1.685e-21   1.438e-21   -20.773   -20.842    -0.069     (0)  
   FerricCl3       3.751e-24   3.752e-24   -23.426   -23.426     0.000     (0)  
Glutamine     5.200e-05
   Glutamine-2     5.200e-05   4.436e-05    -4.284    -4.353    -0.069     (0)  
   H(Glutamine)-   7.645e-10   7.347e-10    -9.117    -9.134    -0.017     (0)  
   H2(Glutamine)   7.500e-10   7.502e-10    -9.125    -9.125     0.000     (0)  
Glycine       5.200e-05
   Glycine-        5.200e-05   4.997e-05    -4.284    -4.301    -0.017     (0)  
   H2(Glycine)+    2.595e-09   2.494e-09    -8.586    -8.603    -0.017     (0)  
   H(Glycine)      1.224e-09   1.224e-09    -8.912    -8.912     0.000     (0)  
H(0)          1.775e-25
   H2              8.873e-26   8.875e-26   -25.052   -25.052     0.000     (0)  
K             2.800e-05
   K+              2.800e-05   2.691e-05    -4.553    -4.570    -0.017     (0)  
   KSulfateO4-     6.457e-10   6.206e-10    -9.190    -9.207    -0.017     (0)  
   KHPO4-          8.533e-11   8.200e-11   -10.069   -10.086    -0.017     (0)  
   KOH             8.329e-13   8.332e-13   -12.079   -12.079     0.000     (0)  
Methane       1.000e-06
   MethaneH4       1.000e-06   1.000e-06    -6.000    -6.000     0.000     (0)  
Mg            7.901e-05
   Mg+2            7.886e-05   6.748e-05    -4.103    -4.171    -0.068     (0)  
   MgHPO4          7.818e-08   7.820e-08    -7.107    -7.107     0.000     (0)  
   MgSulfateO4     5.192e-08   5.193e-08    -7.285    -7.285     0.000     (0)  
   MgH2PO4+        6.450e-09   6.199e-09    -8.190    -8.208    -0.017     (0)  
   MgHCO3+         5.710e-09   5.487e-09    -8.243    -8.261    -0.017     (0)  
   MgOH+           2.277e-09   2.188e-09    -8.643    -8.660    -0.017     (0)  
   MgPO4-          1.715e-09   1.649e-09    -8.766    -8.783    -0.017     (0)  
   MgCO3           1.874e-10   1.874e-10    -9.727    -9.727     0.000     (0)  
Na            1.140e-04
   Na+             1.140e-04   1.096e-04    -3.943    -3.960    -0.017     (0)  
   NaSulfateO4-    1.876e-09   1.803e-09    -8.727    -8.744    -0.017     (0)  
   NaHCO3          4.281e-10   4.283e-10    -9.368    -9.368     0.000     (0)  
   NaHPO4-         3.475e-10   3.340e-10    -9.459    -9.476    -0.017     (0)  
   NaOH            6.464e-12   6.466e-12   -11.189   -11.189     0.000     (0)  
   NaCO3-          6.180e-12   5.940e-12   -11.209   -11.226    -0.017     (0)  
O(0)          0.000e+00
   O2              0.000e+00   0.000e+00   -42.277   -42.276     0.000     (0)  
Ozero         5.111e-04
   Ozero2          2.556e-04   2.556e-04    -3.592    -3.592     0.000     (0)  
P             5.000e-06
   H2PO4-          2.933e-06   2.819e-06    -5.533    -5.550    -0.017     (0)  
   HPO4-2          1.832e-06   1.563e-06    -5.737    -5.806    -0.069     (0)  
   CaHPO4          1.339e-07   1.339e-07    -6.873    -6.873     0.000     (0)  
   MgHPO4          7.818e-08   7.820e-08    -7.107    -7.107     0.000     (0)  
   CaH2PO4+        1.173e-08   1.127e-08    -7.931    -7.948    -0.017     (0)  
   MgH2PO4+        6.450e-09   6.199e-09    -8.190    -8.208    -0.017     (0)  
   CaPO4-          2.944e-09   2.829e-09    -8.531    -8.548    -0.017     (0)  
   MgPO4-          1.715e-09   1.649e-09    -8.766    -8.783    -0.017     (0)  
   NaHPO4-         3.475e-10   3.340e-10    -9.459    -9.476    -0.017     (0)  
   KHPO4-          8.533e-11   8.200e-11   -10.069   -10.086    -0.017     (0)  
   PO4-3           9.000e-12   6.294e-12   -11.046   -11.201    -0.155     (0)  
   FerricH2PO4+2   1.185e-13   1.011e-13   -12.926   -12.995    -0.069     (0)  
   FerricHPO4+     5.833e-14   5.605e-14   -13.234   -13.251    -0.017     (0)  
Sulfate       4.000e-06
   SulfateO4-2     3.842e-06   3.283e-06    -5.415    -5.484    -0.068     (0)  
   CaSulfateO4     1.023e-07   1.023e-07    -6.990    -6.990     0.000     (0)  
   MgSulfateO4     5.192e-08   5.193e-08    -7.285    -7.285     0.000     (0)  
   NaSulfateO4-    1.876e-09   1.803e-09    -8.727    -8.744    -0.017     (0)  
   AmmH4SulfateO4-   1.598e-09   1.536e-09    -8.796    -8.814    -0.017     (0)  
   KSulfateO4-     6.457e-10   6.206e-10    -9.190    -9.207    -0.017     (0)  
   HSulfateO4-     3.718e-11   3.573e-11   -10.430   -10.447    -0.017     (0)  
   CaHSulfateO4+   6.984e-14   6.712e-14   -13.156   -13.173    -0.017     (0)  
   FerricSulfateO4+   4.990e-15   4.795e-15   -14.302   -14.319    -0.017     (0)  
   Ferric(SulfateO4)2-   3.583e-19   3.444e-19   -18.446   -18.463    -0.017     (0)  
   FerricHSulfateO4+2   1.685e-21   1.438e-21   -20.773   -20.842    -0.069     (0)  
Sulfide       1.000e-07
   HSulfide-       5.154e-08   4.952e-08    -7.288    -7.305    -0.017     (0)  
   H2Sulfide       4.847e-08   4.848e-08    -7.315    -7.314     0.000     (0)  
   Sulfide-2       6.251e-14   5.342e-14   -13.204   -13.272    -0.068     (0)  
Threonine     5.200e-05
   Threonine-2     5.200e-05   4.436e-05    -4.284    -4.353    -0.069     (0)  
   H2(Threonine)   7.330e-10   7.332e-10    -9.135    -9.135     0.000     (0)  
   H(Threonine)-   7.301e-10   7.016e-10    -9.137    -9.154    -0.017     (0)  
Tyrosine      5.200e-05
   Tyrosine-2      5.200e-05   4.436e-05    -4.284    -4.353    -0.069     (0)  
   H(Tyrosine)-    8.191e-10   7.872e-10    -9.087    -9.104    -0.017     (0)  
   H2(Tyrosine)    7.163e-10   7.165e-10    -9.145    -9.145     0.000     (0)  

------------------------------Saturation indices-------------------------------

  Phase               SI** log IAP   log K(298 K,   1 atm)

  FixpH            -6.95     -6.95    0.00  H+
  H2(g)           -21.90    -25.05   -3.15  H2
  H2O(g)           -1.51     -0.00    1.51  H2O
  Halite           -9.44     -7.85    1.58  NaCl
  Hydroxyapatite   -5.22     -8.65   -3.42  Ca5(PO4)3OH
  ORM             829.47    -49.76 -879.23  C5H4O2Amm
  redoxAnhydrite   -4.93     -9.29   -4.36  CaSulfateO4
  redoxAragonite   -4.01    -12.34   -8.34  CaCO3
  redoxCalcite     -3.86    -12.34   -8.48  CaCO3
  redoxCH4(g)      -3.14     -6.00   -2.86  MethaneH4
  redoxCO2(g)      -4.29     -5.76   -1.47  CO2
  redoxDolomite    -7.96    -25.05  -17.09  CaMg(CO3)2
  redoxFe(OH)3(a)   3.09      7.98    4.89  Ferric(OH)3
  redoxGoethite     8.98      7.98   -1.00  FerricOOH
  redoxGypsum      -4.71     -9.29   -4.58  CaSulfateO4:2H2O
  redoxH2S(g)      -6.32     -7.31   -1.00  H2Sulfide
  redoxHematite    19.96     15.95   -4.01  Ferric2O3
  redoxJarosite-K  -3.25    -12.46   -9.21  KFerric3(SulfateO4)2(OH)6
  redoxNH3(g)      -8.50     -6.73    1.77  AmmH3
  redoxO2(g)       -0.70     -3.59   -2.89  Ozero2
  redoxSulfur       9.71     14.59    4.88  Sulfide

**For a gas, SI = log10(fugacity). Fugacity = pressure * phi / 1 atm.
  For ideal gases, phi = 1.

------------------
End of simulation.
------------------

------------------------------------
Reading input data for simulation 2.
------------------------------------

	GAS_PHASE 1 fixed volume gas phase
	  fixed_volume
	  volume	   0.9  #(L)  calculate air pore space
	  temperature 	 25.0
	  redoxO2(g)   0.29
	  redoxCH4(g)  0.0
	  redoxCO2(g)  0.000316
	  SAVE GAS_PHASE 1
	END
------------------
End of simulation.
------------------

------------------------------------
Reading input data for simulation 3.
------------------------------------

	USE SOLUTION 1
	USE GAS_PHASE 1
	EXCHANGE_SPECIES
	 X- = X-
	 log_k 0     #semicolon is logical end of line
	 X- + AmmH4+ = AmmH4X
	  log_k  0.25   #define the half-reactions of ion change
	 2X- + Ca+2  = CaX2
	    log_k  0.4    $logK's relative 
	 2X- + Mg+2  = MgX2
	    log_k  0.5
	 X- + Na+  = NaX
	      log_k  0.0
	 X- + K+  = KX
	       log_k  0.2
	EXCHANGE 1   #exchanger in equilibirium 
	  X         16  #exchanger amount in mol
	  equilibrate with solution 1
	  exchange_gammas   true
	EQUILIBRIUM_PHASES 1
	  redoxO2(g)       -1.2  1     #fixed partial pressure approach
	  redoxCalcite      0  0.001     #CaCo3
	  redoxFeS(ppt)     0  0.001     #FeS
	  Hydroxyapatite    0  0.001     #Ca5(PO4)3OH
	  redoxPyrite       0  0.001     #FeS2
	  redoxFe(OH)3(a)   0  2   
	SURFACE 1
	 Hfo_wOH 2e-4  600  280  #site density (per nm2), SSA (m2/g), gram
	 Hfo_sOH 5e-6
	donnan 1e-8   #defuse layer thickness
	  H_a   3.837E-02  3.417E+04     80  ##gram of SOM for exchange
	  H_b   3.837E-02
	 H_c   3.837E-02
	 H_d  3.837E-02
	  H_e   1.919E-02
	 H_f   1.919E-02
	 H_g  1.919E-02
	 H_h  1.919E-02
	  H_ab  6.378E-02
	 H_ad  6.378E-02
	 H_af  6.378E-02
	 H_ah  6.378E-02
	  H_bc  6.378E-02
	 H_be  6.378E-02
	 H_bg  6.378E-05
	 H_cd  6.378E-05
	  H_cf  6.378E-02
	 H_ch  6.378E-02
	 H_de  6.378E-05
	 H_dg  6.378E-05
	 equilibrate with solution 1
	USE SOLUTION 1
	KINETICS  Decomposition  ##in mgC per g soil, redox reaction stoichiometry based on per biomassC
	cvode
	BA
	   m0   0.52
	   formula CH2O 0.0  
	   parms 1.04 0.25 0.001 0.4 0.02  #parm(1)=Vd, parm(2)=Kd, parm(3)=PEP, parm(4)=CUE, parm(5)=kb
	OAC
	   m0  0.001
	   formula CH2O 0.0   
	   parms  0.2  0.25
	Aero
	   formula CH2O 0.0   Ozero2  1.44   HCO3 -1.44  #C 2.44
	   parms  4   0.5  0.05   #Vmax, Koc, Ko2
	SulR
	   formula CH2O 0.0   SulfateO4-2  4.5   HSulfide-  -4.5  HCO3 -9    #C 10
	   parms  0.5   0.1   4   #Vmax, Koc, Kso4
	Meth
	   formula CH2O 0.0     MethaneH4 -20.24  HCO3 20.24   #C 41.48
	   parms  0.25   0.6  0.1   #Vmax, Koc, KI_O2
	POM
	   m0   4.71
	   formula CH2O 0.0  
	   parms 33.8  50  0  0.5   #vp1, kp1, Ip1, gD-fraction of dead BA to D
	MOM
	   m0   15.9
	   formula CH2O 0.0
	   parms 0.2  250 0.5   #vm, km, fD- fraction of decomposed p1/p2 to D
	DOM
	   m0   0.48
	   formula CH2O 0.0
	   parms  0.5  0.25  0
	QOM
	   m0   1.767
	   formula CH2O 0.0
	   parms 0.006 0.5  0.001   #adsorption constant, Qmax, desorption constant
	EP
	   m0   0.052
	   formula CH2O 0.0
	   parms  0.001
	EM
	   m0   0.052
	   formula CH2O 0.0
	   parms  0.001
	respiration
	   m0   0
	   formula CH2O 0.0 
	   parms  0.4
	Tot
	   m0   23.484
	   formula CH2O 0.0
	Salt  ##saltwater ion stoichiometry
	   m0   0.001
	   formula  CH2O 0.0   Cl-  -28  Sulfate  -1   Na+  -25   K+  -1    Ca+2  -2  Mg+2  -4   HCO3  -3  Nitrate -5 
	   parms 0.01  ## mol per gram soil per day
	Caero
	   m0   0
	   formula CH2O 0.0
	Csulr
	   m0   0
	   formula CH2O 0.0
	Cmeth
	   m0   0
	   formula CH2O 0.0
	   steps 100 in 100 steps #day
	  INCREMENTAL_REACTIONS true
	RATES
	BA
	   start
	    10 mDOM= kin("DOM")*0.8
	    20 bio = kin("BA")
	    30 uptake= parm(1)* bio * mDOM/(parm(2)+mDOM)   #parm(1)=Vd, parm(2)=Kd
	    40 put(uptake, 1) #microbil uptake flux                                      
	    50 decay=(1-parm(3)*2)*bio*parm(5)     #parm(3)=pEP=pEM (exoemzyme production rate); 0.1*Vd=biomass decay rate
	    60 put(decay, 2)                                           ##maintenance respiration
	    70 pexo = parm(3)*bio   #exoenzyme production enzyme production rate=0.1*Vd
	    80 put(pexo, 3)                                             ##mortality
	    90 rate = get(1)*parm(4)-get(2)-get(3)-get(3)+get(11)*get(11)/(get(11)+get(12)+get(13))+get(12)*get(12)/(get(11)+get(12)+get(13))+get(13)*get(13)/(get(11)+get(12)+get(13)) #parm(4)=CUE
	    100 save -rate * time 
	   end
	OAC
	   start
	    10 mDOM= kin("DOM")
	    20 rate = parm(1)* mDOM+parm(2)* get(2)-get(11)*2.44*get(11)/(get(11)+get(12)+get(13))-get(12)*10*get(12)/(get(11)+get(12)+get(13))-get(13)*41.48*get(13)/(get(11)+get(12)+get(13))  #C stoichiometry for redox reactions
	    30 put(rate, 14)
	    100 save -rate * time 
	   end
	Aero
	  start
	   10 mDOM= kin("OAC")/12
	   20 bio = kin("BA")/12
	   30 DO= mol("Ozero2")*1000
	   40 donor = mDOM/(parm(2)+mDOM)
	   50 accp = DO/(parm(3)+DO)
	   60 rate = parm(1)* bio * donor * accp
	   70 put(rate, 11)
	   80 final = rate*get(11)/(get(11)+get(12)+get(13))
	  100 save -final* time
	  end
	SulR
	  start
	   10 mDOM= kin("OAC")/12
	   20 bio = 0.6*kin("BA")/12
	   30 DO = mol("Ozero2")*1000
	   40 SO = mol("SulfateO4-2")*1000
	   50 donor = mDOM/(parm(2)+mDOM)
	   60 acc = SO/(parm(3)+SO)
	   70 rate = parm(1)* bio * donor * acc
	   80 put(rate, 12)
	   90 final = rate*get (12)/(get(11)+get(12)+get(13))
	  100 save -final * time
	  end
	Meth
	  start
	   10 mDOM= kin("OAC")/12
	   11 if(kin("OAC")<= 0.15) then mDOM=0
	   20 bio = 0.2*kin("BA")/12
	   30 DO = mol("Ozero2")*1000
	   50 donor = mDOM/(parm(2)+mDOM)
	   60 inhib = parm(3)/(DO+parm(3))
	   70 rate =  parm(1)* bio * donor 
	   80 put(rate, 13)
	   90 final = rate*get (13)/(get(11)+get(12)+get(13))
	  100 save -final * time
	  end
	POM
	   start
	    10 mPOM = kin("POM")
	    20 ep = kin("EP")
	    30 deco = parm(1) * ep * mPOM/(parm(2)+mPOM) # parm(1)=Vp, parm(2)=Kp
	    40 put (deco, 4)  #POM decomposition
	    50 rate = (1-parm(4))*get(2)-get(4)  #parm(3)=input, parm(4)=gD, fraction of decayed biomass C going to DOM pool
	    100 save -rate * time
	   end
	MOM
	   start
	    10 mMOM = kin("MOM")
	    20 em = kin("EM")
	    30 flux = parm(1) * em * mMOM /(parm(2)+ mMOM) # parm(1)=VM, parm(2)=KM
	    40 put(flux,5)  #MOM decomposition flux
	    50 rate = (1-parm(3))*get(4)-get(5)  #parm(3)=fD_fraction of decomposed P to D
	    100 save -rate*time
	   end
	DOM
	   start
	    10 rate = (1-parm(1))*get(4)+parm(2)* get(2)+get(5)+(get(8)+get(9))-get(1)-(get(6)-get(7))-get(14)
	    100 save -rate* time
	   end
	QOM
	   start
	    10 mQOM = kin("QOM")
	    20 D = kin("DOM")
	    30 flux1 = parm(1) * (1-mQOM/parm(2))* D #adsorption flux, parm(1)=adsorption constant, parm(2)=Qmax
	    40 put(flux1,6)  #adsorption flux
	    50 flux2 = parm(3) * (mQOM/parm(2)) #parm(3)=desorption constant, parm(2)=Qmax
	    60 put(flux2,7)  #desorption flux
	    70 rate = get(6)-get(7)
	    100 save -rate * time
	   end
	EP
	   start
	    10 ep = kin("EP")
	    20 flux1 = parm(1)*ep #enzyme decay
	    30 put (flux1,8)
	    40 rate = get(3)-get(8)
	    100 save -rate * time
	   end
	EM
	   start
	    10 em = kin("EM")
	    20 flux1= parm(1)* em
	    30 put (flux1,9)
	    40 rate = get(3)-get(9)
	    100  save -rate * time
	   end
	respiration
	   start
	    10 rate = (1- parm(1))*get(1)+(get(11)*1.44*get(11)/(get(11)+get(12)+get(13))+get(12)*9*get(12)/(get(11)+get(12)+get(13))-get(13)*20.24*get(13)/(get(11)+get(12)+get(13)))*12 #parm(1)=CUE
	    20 put (rate, 10)
	    30 save -rate * time
	   end
	Tot
	   start
	    10 rate = -get(10)-(GAS('redoxCH4(g)')+tot('CH4'))*12
	    20 save -rate * time
	   end
	Salt
	   start
	    10 salt=kin("salt")
	    20 rate = parm(1)*(0.10-salt)   ## The incoming concentration is important
	    30 save -rate * time
	   end
	Caero
	   start
	    10 rate = get(11)*2.44*get (11)/(get(11)+get(12)+get(13))
	    30 save -rate * time
	   end
	Csulr
	   start
	    10 rate = get(12)*10*get (12)/(get(11)+get(12)+get(13))
	    30 save -rate * time
	   end
	Cmeth
	   start
	    10 rate = get(13)*41.48*get (13)/(get(11)+get(12)+get(13))
	    30 save -rate * time
	   end
	SELECTED_OUTPUT
	  reset false
	   pe true
	  file fixp_redox_sw1.txt
	USER_PUNCH
	  start
	  heading Time pH  Ozero HS CH4 CO2g CO2 SC  fsl1  fsl2  fsl3  fsl4 POM MOM QOM DOM BA EP EM IC Total OrgAcid Aero SulR Meth Caero Csulr Cmeth Na  K  Ca  Mg  PO4  Cl  SO4 NH4 HCO3 FeS Pyrite 
	  10 PUNCH SIM_TIME
	  20 PUNCH -la("H+")
	  30 PUNCH mol("Ozero2")  tot('Sulfide')
	  40 PUNCH GAS('redoxCH4(g)')+tot('CH4')  GAS('redoxCO2(g)')  tot('C(4)')
	  50 PUNCH CALC_VALUE ("SC_T25")
	  60 PUNCH CALC_VALUE("fsl1")  CALC_VALUE("fsl2")  CALC_VALUE("fsl3")  CALC_VALUE("fsl4")
	  70 PUNCH kin('POM') kin('MOM') kin('QOM') kin('DOM') kin('BA') kin('EP') kin('EM') 
	  80 PUNCH kin('respiration') kin("Tot") kin('OAC') kin('Aero')  kin('SulR')  kin('Meth')
	  90 PUNCH kin('Caero') kin('Csulr') kin('Cmeth')
	  100 PUNCH tot("Na")  tot("K")  mol("Ca+2")  tot("Mg") tot("P")  tot("Cl")  tot("Sulfate") tot ("Amm")  tot("C(4)")
	  110 PUNCH equi("redoxFeS(ppt)")  equi("redoxPyrite")
	  end
	END
-------------------------------------------------------
Beginning of initial exchange-composition calculations.
-------------------------------------------------------

Exchange 1.	

X                1.600e+01 mol

	                               Equiv-    Equivalent      Log 
	Species             Moles      alents      Fraction     Gamma

	CaX2              5.136e+00   1.027e+01   6.421e-01     0.000
	MgX2              2.793e+00   5.586e+00   3.491e-01     0.000
	NaX               7.092e-02   7.092e-02   4.433e-03     0.000
	AmmH4X            4.180e-02   4.180e-02   2.612e-03     0.000
	KX                2.760e-02   2.760e-02   1.725e-03     0.000
	HX                7.524e-04   7.524e-04   4.703e-05    -0.016

------------------------------------------------------
Beginning of initial surface-composition calculations.
------------------------------------------------------

Surface 1.	

Diffuse Double Layer Surface-Complexation Model

H             
	  1.144e-09  Surface + diffuse layer charge, eq
	 -5.139e-01  Surface charge, eq
	 -1.814e-02  sigma, C/m²
	 -1.120e-01  psi, V
	  4.360e+00  -F*psi/RT
	  7.824e+01  exp(-F*psi/RT)
	  3.417e+04  specific area, m²/g
	  2.734e+06  m² for   8.000e+01 g

	Water in diffuse layer: 2.734e+01 kg, 94.2% of total DDL-water.

	Total moles in diffuse layer (excluding water), Donnan calculation.
	Donnan Layer potential, psi_DL = -4.521e-02 V.
	Boltzmann factor, exp(-psi_DL * F / RT) = 5.811e+00 (= c_DL / c_free if z is +1).

	Element       	     Moles
	Alanine       	  4.2219e-05
	Amm           	  6.0117e-03
	C             	  8.5044e-05
	Ca            	  1.6867e-01
	Cl            	  6.2575e-04
	Cysteine      	  4.2994e-05
	Ferric        	  4.4787e-03
	Glutamine     	  4.2128e-05
	Glycine       	  2.4508e-04
	H             	  3.3920e-02
	K             	  4.4476e-03
	Methane       	  2.7338e-05
	Mg            	  7.2787e-02
	Na            	  1.8108e-02
	O             	  9.9991e-03
	Ozero         	  1.3973e-02
	P             	  2.3987e-05
	Sulfate       	  7.3458e-06
	Sulfide       	  1.5674e-06
	Threonine     	  4.2127e-05
	Tyrosine      	  4.2127e-05

H_a           
	  3.837e-02  moles
	                                   Mole                     Log
	Species               Moles    Fraction    Molality    Molality

	H_a-              3.718e-02       0.969   1.971e-02      -1.705
	H_aCa+            8.730e-04       0.023   4.626e-04      -3.335
	H_aMg+            2.995e-04       0.008   1.587e-04      -3.799
	H_aH              1.267e-05       0.000   6.716e-06      -5.173

H_ab          
	  6.378e-02  moles
	                                   Mole                     Log
	Species               Moles    Fraction    Molality    Molality

	H_ab-2            6.291e-02       0.986   3.334e-02      -1.477
	H_abCa            4.670e-04       0.007   2.475e-04      -3.606
	H_abH-            2.762e-04       0.004   1.464e-04      -3.835
	H_abMg            1.273e-04       0.002   6.745e-05      -4.171
	H_abH2            9.414e-08       0.000   4.989e-08      -7.302

H_ad          
	  6.378e-02  moles
	                                   Mole                     Log
	Species               Moles    Fraction    Molality    Molality

	H_adCa            2.400e-02       0.376   1.272e-02      -1.896
	H_ad-2            1.904e-02       0.298   1.009e-02      -1.996
	H_adH-            1.419e-02       0.223   7.522e-03      -2.124
	H_adMg            6.541e-03       0.103   3.467e-03      -2.460
	H_adH2            4.838e-06       0.000   2.564e-06      -5.591

H_af          
	  6.378e-02  moles
	                                   Mole                     Log
	Species               Moles    Fraction    Molality    Molality

	H_afH-            5.540e-02       0.869   2.936e-02      -1.532
	H_afCa            8.348e-03       0.131   4.424e-03      -2.354
	H_afH2            1.888e-05       0.000   1.001e-05      -5.000
	H_af-2            1.205e-05       0.000   6.385e-06      -5.195
	H_afMg            3.864e-06       0.000   2.048e-06      -5.689

H_ah          
	  6.378e-02  moles
	                                   Mole                     Log
	Species               Moles    Fraction    Molality    Molality

	H_ahH-            6.374e-02       0.999   3.378e-02      -1.471
	H_ahH2            2.172e-05       0.000   1.151e-05      -4.939
	H_ahCa            1.708e-05       0.000   9.052e-06      -5.043
	H_ahMg            4.446e-06       0.000   2.356e-06      -5.628
	H_ah-2            2.896e-09       0.000   1.535e-09      -8.814

H_b           
	  3.837e-02  moles
	                                   Mole                     Log
	Species               Moles    Fraction    Molality    Molality

	H_b-              2.720e-02       0.709   1.441e-02      -1.841
	H_bCa+            8.227e-03       0.214   4.360e-03      -2.361
	H_bMg+            2.823e-03       0.074   1.496e-03      -2.825
	H_bH              1.194e-04       0.003   6.329e-05      -4.199

H_bc          
	  6.378e-02  moles
	                                   Mole                     Log
	Species               Moles    Fraction    Molality    Molality

	H_bcCa            3.020e-02       0.474   1.601e-02      -1.796
	H_bc-2            2.395e-02       0.376   1.269e-02      -1.896
	H_bcMg            8.231e-03       0.129   4.362e-03      -2.360
	H_bcH-            1.386e-03       0.022   7.348e-04      -3.134
	H_bcH2            6.088e-06       0.000   3.226e-06      -5.491

H_be          
	  6.378e-02  moles
	                                   Mole                     Log
	Species               Moles    Fraction    Molality    Molality

	H_beH-            6.230e-02       0.977   3.301e-02      -1.481
	H_be-2            9.374e-04       0.015   4.968e-04      -3.304
	H_beH2            2.735e-04       0.004   1.450e-04      -3.839
	H_beCa            2.151e-04       0.003   1.140e-04      -3.943
	H_beMg            5.598e-05       0.001   2.966e-05      -4.528

H_bg          
	  6.378e-05  moles
	                                   Mole                     Log
	Species               Moles    Fraction    Molality    Molality

	H_bgH-            6.323e-05       0.991   3.351e-05      -4.475
	H_bgH2            2.776e-07       0.004   1.471e-07      -6.832
	H_bgCa            2.183e-07       0.003   1.157e-07      -6.937
	H_bgMg            5.681e-08       0.001   3.011e-08      -7.521
	H_bg-2            1.988e-10       0.000   1.053e-10      -9.977

H_c           
	  3.837e-02  moles
	                                   Mole                     Log
	Species               Moles    Fraction    Molality    Molality

	H_cCa+            2.386e-02       0.622   1.264e-02      -1.898
	H_cMg+            8.185e-03       0.213   4.337e-03      -2.363
	H_c-              5.983e-03       0.156   3.171e-03      -2.499
	H_cH              3.463e-04       0.009   1.835e-04      -3.736

H_cd          
	  6.378e-05  moles
	                                   Mole                     Log
	Species               Moles    Fraction    Molality    Molality

	H_cdCa            4.979e-05       0.781   2.639e-05      -4.579
	H_cdMg            1.357e-05       0.213   7.192e-06      -5.143
	H_cd-2            2.326e-07       0.004   1.232e-07      -6.909
	H_cdH-            1.734e-07       0.003   9.189e-08      -7.037
	H_cdH2            1.004e-08       0.000   5.319e-09      -8.274

H_cf          
	  6.378e-02  moles
	                                   Mole                     Log
	Species               Moles    Fraction    Molality    Molality

	H_cfH-            5.718e-02       0.896   3.030e-02      -1.519
	H_cfH2            3.309e-03       0.052   1.754e-03      -2.756
	H_cfCa            2.602e-03       0.041   1.379e-03      -2.860
	H_cfMg            6.773e-04       0.011   3.589e-04      -3.445
	H_cf-2            1.244e-05       0.000   6.591e-06      -5.181

H_ch          
	  6.378e-02  moles
	                                   Mole                     Log
	Species               Moles    Fraction    Molality    Molality

	H_chH-            5.719e-02       0.897   3.031e-02      -1.518
	H_chH2            3.310e-03       0.052   1.754e-03      -2.756
	H_chCa            2.603e-03       0.041   1.379e-03      -2.860
	H_chMg            6.774e-04       0.011   3.590e-04      -3.445
	H_ch-2            2.599e-09       0.000   1.377e-09      -8.861

H_d           
	  3.837e-02  moles
	                                   Mole                     Log
	Species               Moles    Fraction    Molality    Molality

	H_dCa+            2.786e-02       0.726   1.477e-02      -1.831
	H_dMg+            9.560e-03       0.249   5.066e-03      -2.295
	H_d-              5.425e-04       0.014   2.875e-04      -3.541
	H_dH              4.045e-04       0.011   2.144e-04      -3.669

H_de          
	  6.378e-05  moles
	                                   Mole                     Log
	Species               Moles    Fraction    Molality    Molality

	H_deH-            2.552e-05       0.400   1.352e-05      -4.869
	H_deH2            1.903e-05       0.298   1.008e-05      -4.996
	H_deCa            1.496e-05       0.235   7.928e-06      -5.101
	H_deMg            3.894e-06       0.061   2.063e-06      -5.685
	H_de-2            3.840e-07       0.006   2.035e-07      -6.691

H_dg          
	  6.378e-05  moles
	                                   Mole                     Log
	Species               Moles    Fraction    Molality    Molality

	H_dgH-            2.567e-05       0.402   1.360e-05      -4.866
	H_dgH2            1.914e-05       0.300   1.014e-05      -4.994
	H_dgCa            1.505e-05       0.236   7.976e-06      -5.098
	H_dgMg            3.917e-06       0.061   2.076e-06      -5.683
	H_dg-2            8.071e-11       0.000   4.277e-11     -10.369

H_e           
	  1.919e-02  moles
	                                   Mole                     Log
	Species               Moles    Fraction    Molality    Molality

	H_eH              1.863e-02       0.971   9.875e-03      -2.005
	H_e-              2.804e-04       0.015   1.486e-04      -3.828
	H_eCa+            2.082e-04       0.011   1.103e-04      -3.957
	H_eMg+            6.666e-05       0.003   3.533e-05      -4.452

H_f           
	  1.919e-02  moles
	                                   Mole                     Log
	Species               Moles    Fraction    Molality    Molality

	H_fH              1.891e-02       0.985   1.002e-02      -1.999
	H_fCa+            2.112e-04       0.011   1.119e-04      -3.951
	H_fMg+            6.763e-05       0.004   3.584e-05      -4.446
	H_f-              4.112e-06       0.000   2.179e-06      -5.662

H_g           
	  1.919e-02  moles
	                                   Mole                     Log
	Species               Moles    Fraction    Molality    Molality

	H_gH              1.891e-02       0.985   1.002e-02      -1.999
	H_gCa+            2.113e-04       0.011   1.120e-04      -3.951
	H_gMg+            6.765e-05       0.004   3.585e-05      -4.446
	H_g-              5.945e-08       0.000   3.151e-08      -7.502

H_h           
	  1.919e-02  moles
	                                   Mole                     Log
	Species               Moles    Fraction    Molality    Molality

	H_hH              1.891e-02       0.985   1.002e-02      -1.999
	H_hCa+            2.113e-04       0.011   1.120e-04      -3.951
	H_hMg+            6.765e-05       0.004   3.585e-05      -4.446
	H_h-              8.594e-10       0.000   4.554e-10      -9.342

Hfo           
	 -9.038e-14  Surface + diffuse layer charge, eq
	 -7.866e-06  Surface charge, eq
	 -4.518e-06  sigma, C/m²
	 -5.587e-05  psi, V
	  2.175e-03  -F*psi/RT
	  1.002e+00  exp(-F*psi/RT)
	  6.000e+02  specific area, m²/g
	  1.680e+05  m² for   2.800e+02 g

	Water in diffuse layer: 1.680e+00 kg,  5.8% of total DDL-water.

	Total moles in diffuse layer (excluding water), Donnan calculation.
	Donnan Layer potential, psi_DL = -4.796e-05 V.
	Boltzmann factor, exp(-psi_DL * F / RT) = 1.002e+00 (= c_DL / c_free if z is +1).

	Element       	     Moles
	Alanine       	  8.7041e-05
	Amm           	  6.3963e-05
	C             	  1.5098e-05
	Ca            	  3.0861e-04
	Cl            	  2.2304e-04
	Cysteine      	  8.7041e-05
	Ferric        	  8.4079e-05
	Glutamine     	  8.7041e-05
	Glycine       	  8.7203e-05
	H             	  5.0128e-04
	K             	  4.7131e-05
	Methane       	  1.6801e-06
	Mg            	  1.3322e-04
	Na            	  1.9189e-04
	O             	  3.1561e-04
	Ozero         	  8.5873e-04
	P             	  8.3800e-06
	Sulfate       	  6.6964e-06
	Sulfide       	  1.6785e-07
	Threonine     	  8.7041e-05
	Tyrosine      	  8.7041e-05

Hfo_s         
	  5.000e-06  moles
	                                   Mole                     Log
	Species               Moles    Fraction    Molality    Molality

	Hfo_sOHCa+2       4.104e-06       0.821   2.175e-06      -5.663
	Hfo_sOH2+         6.131e-07       0.123   3.249e-07      -6.488
	Hfo_sOH           2.802e-07       0.056   1.485e-07      -6.828
	Hfo_sO-           2.934e-09       0.001   1.555e-09      -8.808

Hfo_w         
	  2.000e-04  moles
	                                   Mole                     Log
	Species               Moles    Fraction    Molality    Molality

	Hfo_wOH2+         7.692e-05       0.385   4.076e-05      -4.390
	Hfo_wHPO4-        6.795e-05       0.340   3.601e-05      -4.444
	Hfo_wOH           3.516e-05       0.176   1.863e-05      -4.730
	Hfo_wPO4-2        1.295e-05       0.065   6.861e-06      -5.164
	Hfo_wH2PO4        6.056e-06       0.030   3.209e-06      -5.494
	Hfo_wOMg+         5.334e-07       0.003   2.827e-07      -6.549
	Hfo_wO-           3.681e-07       0.002   1.951e-07      -6.710
	Hfo_wOCa+         6.945e-08       0.000   3.680e-08      -7.434
	Hfo_wSulfateO4-   7.769e-10       0.000   4.117e-10      -9.385
	Hfo_wOHSulfateO4-2   7.085e-10       0.000   3.755e-10      -9.425

-----------------------------------------
Beginning of batch-reaction calculations.
-----------------------------------------

Reaction step 1.

WARNING: Zero divide in BASIC line
 90  rate = get(1)*parm(4)-get(2)-get(3)-get(3)+get(11)*get(11)/(get(11)+get(12)+get(13))+get(12)*get(12)/(get(11)+get(12)+get(13))+get(13)*get(13)/(get(11)+get(12)+get(13)).
Value set to zero.
WARNING: Zero divide in BASIC line
 90  rate = get(1)*parm(4)-get(2)-get(3)-get(3)+get(11)*get(11)/(get(11)+get(12)+get(13))+get(12)*get(12)/(get(11)+get(12)+get(13))+get(13)*get(13)/(get(11)+get(12)+get(13)).
Value set to zero.
WARNING: Zero divide in BASIC line
 90  rate = get(1)*parm(4)-get(2)-get(3)-get(3)+get(11)*get(11)/(get(11)+get(12)+get(13))+get(12)*get(12)/(get(11)+get(12)+get(13))+get(13)*get(13)/(get(11)+get(12)+get(13)).
Value set to zero.
WARNING: Zero divide in BASIC line
 20  rate = parm(1)* mDOM+parm(2)* get(2)-get(11)*2.44*get(11)/(get(11)+get(12)+get(13))-get(12)*10*get(12)/(get(11)+get(12)+get(13))-get(13)*41.48*get(13)/(get(11)+get(12)+get(13)).
Value set to zero.
WARNING: Zero divide in BASIC line
 20  rate = parm(1)* mDOM+parm(2)* get(2)-get(11)*2.44*get(11)/(get(11)+get(12)+get(13))-get(12)*10*get(12)/(get(11)+get(12)+get(13))-get(13)*41.48*get(13)/(get(11)+get(12)+get(13)).
Value set to zero.
WARNING: Zero divide in BASIC line
 20  rate = parm(1)* mDOM+parm(2)* get(2)-get(11)*2.44*get(11)/(get(11)+get(12)+get(13))-get(12)*10*get(12)/(get(11)+get(12)+get(13))-get(13)*41.48*get(13)/(get(11)+get(12)+get(13)).
Value set to zero.
Using solution 1.	
Using exchange 1.	Exchange assemblage after simulation 3.
Using surface 1.	
Using pure phase assemblage 1.	
Using gas phase 1.	fixed volume gas phase
Using kinetics 1.	Decomposition  

Kinetics 1.	Decomposition  

	Time step: 1 seconds  (Incremented time: 1 seconds)

	Rate name       Delta Moles Total Moles   Reactant        Coefficient

	BA                1.085e-01   6.285e-01   CH2O                      0
	OAC               6.678e-02   6.778e-02   CH2O                      0
	Aero              7.858e-04   1.001e+00   CH2O                      0
	                                          HCO3                  -1.44
	                                          Ozero2                 1.44
	SulR              6.500e-08   1.000e+00   CH2O                      0
	                                          HCO3                     -9
	                                          HSulfide-              -4.5
	                                          SulfateO4-2             4.5
	Meth             -0.000e+00   1.000e+00   CH2O                      0
	                                          HCO3                  20.24
	                                          MethaneH4            -20.24
	POM              -1.441e-01   4.566e+00   CH2O                      0
	MOM               7.433e-02   1.597e+01   CH2O                      0
	DOM              -2.806e-01   1.994e-01   CH2O                      0
	QOM              -8.513e-03   1.758e+00   CH2O                      0
	EP                5.245e-04   5.252e-02   CH2O                      0
	EM                5.245e-04   5.252e-02   CH2O                      0
	respiration       1.941e-01   1.941e-01   CH2O                      0
	Tot              -1.943e-01   2.329e+01   CH2O                      0
	Salt              9.851e-04   1.985e-03   CH2O                      0
	                                          Ca+2                     -2
	                                          Cl-                     -28
	                                          HCO3                     -3
	                                          K+                       -1
	                                          Mg+2                     -4
	                                          Na+                     -25
	                                          Nitrate                  -5
	                                          Sulfate                  -1
	Caero             1.917e-03   1.917e-03   CH2O                      0
	Csulr             6.500e-07   6.500e-07   CH2O                      0
	Cmeth            -0.000e+00   0.000e+00   CH2O                      0

-----------------------------------Gas phase-----------------------------------

Total pressure:  0.07      atmospheres 
    Gas volume:   9.00e-01 liters
  Molar volume:   3.72e+02 liters/mole

                                                        Moles in gas
                                            ----------------------------------
Component                log P           P     Initial       Final       Delta

redoxCH4(g)              -3.41   3.893e-04   0.000e+00   1.432e-05   1.432e-05
redoxCO2(g)              -2.63   2.347e-03   1.162e-05   8.634e-05   7.472e-05
redoxO2(g)               -1.20   6.310e-02   1.067e-02   2.321e-03  -8.347e-03

-------------------------------Phase assemblage--------------------------------

                                                      Moles in assemblage
Phase               SI  log IAP  log K(T, P)   Initial       Final       Delta

Hydroxyapatite    0.00    -3.42     -3.42    1.000e-03   5.399e-04  -4.601e-04
redoxCalcite     -2.08   -10.56     -8.48    1.000e-03           0  -1.000e-03
redoxFe(OH)3(a)   -0.00     4.89      4.89    2.000e+00   2.005e+00   4.654e-03
redoxFeS(ppt)    -2.31    -6.23     -3.92    1.000e-03           0  -1.000e-03
redoxO2(g)       -1.20    -4.09     -2.89    1.000e+00   1.013e+00   1.262e-02
redoxPyrite      -0.00   -18.48    -18.48    1.000e-03   1.420e-03   4.202e-04

------------------------------Surface composition------------------------------

Diffuse Double Layer Surface-Complexation Model

H             
	 -1.322e-09  Surface + diffuse layer charge, eq
	 -5.747e-01  Surface charge, eq
	 -2.029e-02  sigma, C/m²
	 -8.394e-02  psi, V
	  3.267e+00  -F*psi/RT
	  2.624e+01  exp(-F*psi/RT)
	  3.417e+04  specific area, m²/g
	  2.734e+06  m² for   8.000e+01 g

	Water in diffuse layer: 2.734e+01 kg, 94.2% of total DDL-water.

	Total moles in diffuse layer (excluding water), Donnan calculation.
	Donnan Layer potential, psi_DL = -2.578e-02 V.
	Boltzmann factor, exp(-psi_DL * F / RT) = 2.728e+00 (= c_DL / c_free if z is +1).

	Element       	     Moles
	Alanine       	  1.1591e-04
	Amm           	  6.2692e-03
	C             	  4.1884e-03
	Ca            	  1.9949e-01
	Cl            	  2.1175e-02
	Cysteine      	  1.1693e-04
	Ferric        	  3.3972e-06
	Ferrous       	  1.5192e-05
	Glutamine     	  1.1579e-04
	Glycine       	  3.1786e-04
	H             	  6.1966e-02
	K             	  4.7693e-03
	Methane       	  1.4672e-05
	Mg            	  8.5892e-02
	Na            	  2.3887e-02
	Nitrate       	  3.6362e-03
	O             	  2.8048e-02
	Ozero         	  4.4148e-03
	P             	  1.0188e-03
	Sulfate       	  6.6797e-04
	Sulfide       	  1.3824e-04
	Threonine     	  1.1579e-04
	Tyrosine      	  1.1579e-04

H_a           
	  3.837e-02  moles
	                                   Mole                     Log
	Species               Moles    Fraction    Molality    Molality

	H_a-              3.774e-02       0.984   2.000e-02      -1.699
	H_aCa+            4.647e-04       0.012   2.463e-04      -3.609
	H_aMg+            1.594e-04       0.004   8.448e-05      -4.073
	H_aH              8.078e-06       0.000   4.282e-06      -5.368

H_ab          
	  6.378e-02  moles
	                                   Mole                     Log
	Species               Moles    Fraction    Molality    Molality

	H_ab-2            6.329e-02       0.992   3.355e-02      -1.474
	H_abCa            2.464e-04       0.004   1.306e-04      -3.884
	H_abH-            1.745e-04       0.003   9.251e-05      -4.034
	H_abMg            6.714e-05       0.001   3.559e-05      -4.449
	H_abH2            3.736e-08       0.000   1.980e-08      -7.703

H_ad          
	  6.378e-02  moles
	                                   Mole                     Log
	Species               Moles    Fraction    Molality    Molality

	H_ad-2            2.761e-02       0.433   1.464e-02      -1.835
	H_adCa            1.826e-02       0.286   9.678e-03      -2.014
	H_adH-            1.293e-02       0.203   6.854e-03      -2.164
	H_adMg            4.975e-03       0.078   2.637e-03      -2.579
	H_adH2            2.768e-06       0.000   1.467e-06      -5.834

H_af          
	  6.378e-02  moles
	                                   Mole                     Log
	Species               Moles    Fraction    Molality    Molality

	H_afH-            5.662e-02       0.888   3.001e-02      -1.523
	H_afCa            7.126e-03       0.112   3.777e-03      -2.423
	H_af-2            1.961e-05       0.000   1.039e-05      -4.983
	H_afH2            1.212e-05       0.000   6.424e-06      -5.192
	H_afMg            3.297e-06       0.000   1.747e-06      -5.758

H_ah          
	  6.378e-02  moles
	                                   Mole                     Log
	Species               Moles    Fraction    Molality    Molality

	H_ahH-            6.375e-02       1.000   3.379e-02      -1.471
	H_ahCa            1.427e-05       0.000   7.562e-06      -5.121
	H_ahH2            1.365e-05       0.000   7.233e-06      -5.141
	H_ahMg            3.712e-06       0.000   1.967e-06      -5.706
	H_ah-2            4.613e-09       0.000   2.445e-09      -8.612

H_b           
	  3.837e-02  moles
	                                   Mole                     Log
	Species               Moles    Fraction    Molality    Molality

	H_b-              3.156e-02       0.823   1.673e-02      -1.777
	H_bCa+            5.006e-03       0.130   2.654e-03      -2.576
	H_bMg+            1.717e-03       0.045   9.101e-04      -3.041
	H_bH              8.703e-05       0.002   4.613e-05      -4.336

H_bc          
	  6.378e-02  moles
	                                   Mole                     Log
	Species               Moles    Fraction    Molality    Molality

	H_bc-2            3.396e-02       0.533   1.800e-02      -1.745
	H_bcCa            2.246e-02       0.352   1.190e-02      -1.924
	H_bcMg            6.119e-03       0.096   3.243e-03      -2.489
	H_bcH-            1.235e-03       0.019   6.544e-04      -3.184
	H_bcH2            3.405e-06       0.000   1.805e-06      -5.744

H_be          
	  6.378e-02  moles
	                                   Mole                     Log
	Species               Moles    Fraction    Molality    Molality

	H_beH-            6.190e-02       0.971   3.281e-02      -1.484
	H_be-2            1.483e-03       0.023   7.861e-04      -3.105
	H_beCa            1.785e-04       0.003   9.459e-05      -4.024
	H_beH2            1.707e-04       0.003   9.048e-05      -4.043
	H_beMg            4.643e-05       0.001   2.461e-05      -4.609

H_bg          
	  6.378e-05  moles
	                                   Mole                     Log
	Species               Moles    Fraction    Molality    Molality

	H_bgH-            6.337e-05       0.994   3.359e-05      -4.474
	H_bgCa            1.827e-07       0.003   9.685e-08      -7.014
	H_bgH2            1.748e-07       0.003   9.263e-08      -7.033
	H_bgMg            4.754e-08       0.001   2.520e-08      -7.599
	H_bg-2            3.172e-10       0.000   1.682e-10      -9.774

H_c           
	  3.837e-02  moles
	                                   Mole                     Log
	Species               Moles    Fraction    Molality    Molality

	H_cCa+            2.087e-02       0.544   1.106e-02      -1.956
	H_c-              9.980e-03       0.260   5.290e-03      -2.277
	H_cMg+            7.158e-03       0.187   3.794e-03      -2.421
	H_cH              3.628e-04       0.009   1.923e-04      -3.716

H_cd          
	  6.378e-05  moles
	                                   Mole                     Log
	Species               Moles    Fraction    Molality    Molality

	H_cdCa            4.961e-05       0.778   2.629e-05      -4.580
	H_cdMg            1.352e-05       0.212   7.164e-06      -5.145
	H_cd-2            4.418e-07       0.007   2.341e-07      -6.631
	H_cdH-            2.069e-07       0.003   1.097e-07      -6.960
	H_cdH2            7.520e-09       0.000   3.986e-09      -8.399

H_cf          
	  6.378e-02  moles
	                                   Mole                     Log
	Species               Moles    Fraction    Molality    Molality

	H_cfH-            5.881e-02       0.922   3.117e-02      -1.506
	H_cfCa            2.235e-03       0.035   1.185e-03      -2.926
	H_cfH2            2.138e-03       0.034   1.133e-03      -2.946
	H_cfMg            5.815e-04       0.009   3.082e-04      -3.511
	H_cf-2            2.037e-05       0.000   1.079e-05      -4.967

H_ch          
	  6.378e-02  moles
	                                   Mole                     Log
	Species               Moles    Fraction    Molality    Molality

	H_chH-            5.882e-02       0.922   3.118e-02      -1.506
	H_chCa            2.236e-03       0.035   1.185e-03      -2.926
	H_chH2            2.138e-03       0.034   1.133e-03      -2.946
	H_chMg            5.817e-04       0.009   3.083e-04      -3.511
	H_ch-2            4.256e-09       0.000   2.256e-09      -8.647

H_d           
	  3.837e-02  moles
	                                   Mole                     Log
	Species               Moles    Fraction    Molality    Molality

	H_dCa+            2.746e-02       0.716   1.455e-02      -1.837
	H_dMg+            9.417e-03       0.245   4.991e-03      -2.302
	H_d-              1.019e-03       0.027   5.402e-04      -3.267
	H_dH              4.773e-04       0.012   2.530e-04      -3.597

H_de          
	  6.378e-05  moles
	                                   Mole                     Log
	Species               Moles    Fraction    Molality    Molality

	H_deH-            3.024e-05       0.474   1.603e-05      -4.795
	H_deCa            1.481e-05       0.232   7.847e-06      -5.105
	H_deH2            1.416e-05       0.222   7.506e-06      -5.125
	H_deMg            3.852e-06       0.060   2.042e-06      -5.690
	H_de-2            7.245e-07       0.011   3.840e-07      -6.416

H_dg          
	  6.378e-05  moles
	                                   Mole                     Log
	Species               Moles    Fraction    Molality    Molality

	H_dgH-            3.059e-05       0.480   1.621e-05      -4.790
	H_dgCa            1.498e-05       0.235   7.937e-06      -5.100
	H_dgH2            1.432e-05       0.225   7.592e-06      -5.120
	H_dgMg            3.896e-06       0.061   2.065e-06      -5.685
	H_dg-2            1.531e-10       0.000   8.115e-11     -10.091

H_e           
	  1.919e-02  moles
	                                   Mole                     Log
	Species               Moles    Fraction    Molality    Molality

	H_eH              1.852e-02       0.965   9.815e-03      -2.008
	H_e-              4.437e-04       0.023   2.352e-04      -3.629
	H_eCa+            1.728e-04       0.009   9.157e-05      -4.038
	H_eMg+            5.530e-05       0.003   2.931e-05      -4.533

H_f           
	  1.919e-02  moles
	                                   Mole                     Log
	Species               Moles    Fraction    Molality    Molality

	H_fH              1.895e-02       0.987   1.004e-02      -1.998
	H_fCa+            1.768e-04       0.009   9.371e-05      -4.028
	H_fMg+            5.659e-05       0.003   2.999e-05      -4.523
	H_f-              6.563e-06       0.000   3.479e-06      -5.459

H_g           
	  1.919e-02  moles
	                                   Mole                     Log
	Species               Moles    Fraction    Molality    Molality

	H_gH              1.896e-02       0.988   1.005e-02      -1.998
	H_gCa+            1.769e-04       0.009   9.374e-05      -4.028
	H_gMg+            5.661e-05       0.003   3.000e-05      -4.523
	H_g-              9.489e-08       0.000   5.030e-08      -7.298

H_h           
	  1.919e-02  moles
	                                   Mole                     Log
	Species               Moles    Fraction    Molality    Molality

	H_hH              1.896e-02       0.988   1.005e-02      -1.998
	H_hCa+            1.769e-04       0.009   9.374e-05      -4.028
	H_hMg+            5.661e-05       0.003   3.000e-05      -4.523
	H_h-              1.372e-09       0.000   7.270e-10      -9.138

Hfo           
	 -3.095e-13  Surface + diffuse layer charge, eq
	 -1.424e-04  Surface charge, eq
	 -8.177e-05  sigma, C/m²
	 -5.102e-04  psi, V
	  1.986e-02  -F*psi/RT
	  1.020e+00  exp(-F*psi/RT)
	  6.000e+02  specific area, m²/g
	  1.680e+05  m² for   2.800e+02 g

	Water in diffuse layer: 1.680e+00 kg,  5.8% of total DDL-water.

	Total moles in diffuse layer (excluding water), Donnan calculation.
	Donnan Layer potential, psi_DL = -2.203e-04 V.
	Boltzmann factor, exp(-psi_DL * F / RT) = 1.009e+00 (= c_DL / c_free if z is +1).

	Element       	     Moles
	Alanine       	  5.2034e-05
	Amm           	  1.4276e-04
	C             	  4.4208e-04
	Ca            	  1.7006e-03
	Cl            	  3.5199e-03
	Cysteine      	  5.1922e-05
	Ferric        	  9.9912e-08
	Ferrous       	  1.3670e-07
	Glutamine     	  5.2047e-05
	Glycine       	  5.2776e-05
	H             	  3.1615e-03
	K             	  1.0841e-04
	Methane       	  9.0169e-07
	Mg            	  7.3462e-04
	Na            	  5.4294e-04
	Nitrate       	  6.0446e-04
	O             	  4.2224e-03
	Ozero         	  2.7132e-04
	P             	  1.4597e-04
	Sulfate       	  1.5815e-04
	Sulfide       	  1.1069e-05
	Threonine     	  5.2047e-05
	Tyrosine      	  5.2047e-05

Hfo_s         
	  5.000e-06  moles
	                                   Mole                     Log
	Species               Moles    Fraction    Molality    Molality

	Hfo_sOHCa+2       4.657e-06       0.931   2.469e-06      -5.608
	Hfo_sOH2+         2.745e-07       0.055   1.455e-07      -6.837
	Hfo_sOH           6.582e-08       0.013   3.489e-08      -7.457
	Hfo_sOFerrous+    1.965e-09       0.000   1.042e-09      -8.982
	Hfo_sO-           3.615e-10       0.000   1.916e-10      -9.718

Hfo_w         
	  2.000e-04  moles
	                                   Mole                     Log
	Species               Moles    Fraction    Molality    Molality

	Hfo_wHPO4-        1.408e-04       0.704   7.465e-05      -4.127
	Hfo_wH2PO4        2.393e-05       0.120   1.268e-05      -4.897
	Hfo_wOH2+         1.689e-05       0.084   8.954e-06      -5.048
	Hfo_wPO4-2        1.408e-05       0.070   7.462e-06      -5.127
	Hfo_wOH           4.050e-06       0.020   2.147e-06      -5.668
	Hfo_wOMg+         1.557e-07       0.001   8.253e-08      -7.083
	Hfo_wO-           2.225e-08       0.000   1.179e-08      -7.928
	Hfo_wOCa+         2.028e-08       0.000   1.075e-08      -7.969
	Hfo_wSulfateO4-   3.060e-09       0.000   1.622e-09      -8.790
	Hfo_wOHSulfateO4-2   1.463e-09       0.000   7.757e-10      -9.110
	Hfo_wOFerrous+    1.129e-09       0.000   5.982e-10      -9.223
	Hfo_wOFerrousOH   1.420e-11       0.000   7.526e-12     -11.123

-----------------------------Exchange composition------------------------------

X                1.600e+01 mol

	                               Equiv-    Equivalent      Log 
	Species             Moles      alents      Fraction     Gamma

	CaX2              5.131e+00   1.026e+01   6.414e-01     0.000
	MgX2              2.789e+00   5.578e+00   3.486e-01     0.000
	NaX               8.903e-02   8.903e-02   5.564e-03     0.000
	AmmH4X            4.137e-02   4.137e-02   2.586e-03     0.000
	KX                2.813e-02   2.813e-02   1.758e-03     0.000
	HX                6.724e-04   6.724e-04   4.203e-05    -0.030
	FerrousX2         5.643e-04   1.129e-03   7.054e-05    -0.126

-----------------------------Solution composition------------------------------

	Elements           Molality       Moles

	Alanine           3.151e-05   5.944e-05
	Amm               8.425e-05   1.590e-04
	C                 2.647e-04   4.994e-04
	Ca                9.953e-04   1.878e-03
	Cl                2.113e-03   3.987e-03
	Cysteine          3.144e-05   5.931e-05
	Ferric            5.915e-08   1.116e-07
	Ferrous           8.008e-08   1.511e-07
	Glutamine         3.152e-05   5.946e-05
	Glycine           3.168e-05   5.978e-05
	K                 6.398e-05   1.207e-04
	Methane           5.367e-07   1.013e-06
	Mg                4.300e-04   8.112e-04
	Na                3.204e-04   6.045e-04
	Nitrate           3.629e-04   6.847e-04
	Ozero             1.615e-04   3.047e-04
	P                 8.770e-05   1.655e-04
	Sulfate           9.553e-05   1.802e-04
	Sulfide           6.609e-06   1.247e-05
	Threonine         3.152e-05   5.946e-05
	Tyrosine          3.152e-05   5.946e-05

----------------------------Description of solution----------------------------

                                       pH  =   6.678      Charge balance
                                       pe  =  -6.643      Adjusted to redox equilibrium
      Specific Conductance (µS/cm,  25°C)  = 371
                        Activity of water  =   1.000
                 Ionic strength (mol/kgw)  =   4.927e-03
                       Mass of water (kg)  =   1.887e+00
                 Total alkalinity (eq/kg)  =   4.071e-04
                       Total CO2 (mol/kg)  =   2.647e-04
                         Temperature (°C)  =  25.00
                           Pressure (atm)  =  0.07
                  Electrical balance (eq)  =  -8.060e-10
 Percent error, 100*(Cat-|An|)/(Cat+|An|)  =  -0.00
                               Iterations  = 212
                                  Total H  = 2.094450e+02
                                  Total O  = 1.047255e+02

----------------------------Distribution of species----------------------------

                                               Log       Log       Log    mole V
   Species          Molality    Activity  Molality  Activity     Gamma   cm³/mol

   H+              2.245e-07   2.097e-07    -6.649    -6.678    -0.030      0.00
   OH-             5.152e-08   4.773e-08    -7.288    -7.321    -0.033     (0)  
   H2O             5.551e+01   9.999e-01     1.744    -0.000     0.000     18.07
Alanine       3.151e-05
   Alanine-2       3.150e-05   2.331e-05    -4.502    -4.633    -0.131     (0)  
   H2(Alanine)     7.589e-09   7.598e-09    -8.120    -8.119     0.000     (0)  
   H(Alanine)-     1.180e-09   1.094e-09    -8.928    -8.961    -0.033     (0)  
Amm           8.425e-05
   AmmH4+          8.398e-05   7.768e-05    -4.076    -4.110    -0.034     (0)  
   AmmH3           2.109e-07   2.111e-07    -6.676    -6.676     0.000     (0)  
   AmmH4SulfateO4-   6.579e-08   6.102e-08    -7.182    -7.215    -0.033     (0)  
C(4)          2.647e-04
   HCO3-           1.824e-04   1.695e-04    -3.739    -3.771    -0.032     (0)  
   CO2             7.982e-05   7.991e-05    -4.098    -4.097     0.000     (0)  
   CaHCO3+         1.695e-06   1.575e-06    -5.771    -5.803    -0.032     (0)  
   MgHCO3+         6.727e-07   6.239e-07    -6.172    -6.205    -0.033     (0)  
   CO3-2           5.081e-08   3.790e-08    -7.294    -7.421    -0.127     (0)  
   CaCO3           4.634e-08   4.639e-08    -7.334    -7.334     0.000     (0)  
   NaHCO3          2.830e-08   2.833e-08    -7.548    -7.548     0.000     (0)  
   MgCO3           1.137e-08   1.138e-08    -7.944    -7.944     0.000     (0)  
   FerrousHCO3+    9.996e-10   9.271e-10    -9.000    -9.033    -0.033     (0)  
   NaCO3-          2.262e-10   2.098e-10    -9.646    -9.678    -0.033     (0)  
   FerrousCO3      4.968e-11   4.974e-11   -10.304   -10.303     0.000     (0)  
Ca            9.953e-04
   Ca+2            9.775e-04   7.287e-04    -3.010    -3.137    -0.128     (0)  
   CaSulfateO4     8.855e-06   8.865e-06    -5.053    -5.052     0.000     (0)  
   CaHPO4          6.100e-06   6.106e-06    -5.215    -5.214     0.000     (0)  
   CaHCO3+         1.695e-06   1.575e-06    -5.771    -5.803    -0.032     (0)  
   CaH2PO4+        1.038e-06   9.625e-07    -5.984    -6.017    -0.033     (0)  
   CaPO4-          7.428e-08   6.890e-08    -7.129    -7.162    -0.033     (0)  
   CaCO3           4.634e-08   4.639e-08    -7.334    -7.334     0.000     (0)  
   CaOH+           6.217e-10   5.766e-10    -9.206    -9.239    -0.033     (0)  
   CaHSulfateO4+   1.174e-11   1.089e-11   -10.930   -10.963    -0.033     (0)  
Cl            2.113e-03
   Cl-             2.113e-03   1.958e-03    -2.675    -2.708    -0.033     (0)  
   FerrousCl+      1.595e-10   1.479e-10    -9.797    -9.830    -0.033     (0)  
   FerricCl+2      5.736e-17   4.244e-17   -16.241   -16.372    -0.131     (0)  
   FerricCl2+      4.003e-19   3.713e-19   -18.398   -18.430    -0.033     (0)  
   FerricCl3       7.263e-23   7.271e-23   -22.139   -22.138     0.000     (0)  
Cysteine      3.144e-05
   Cysteine-2      3.138e-05   2.322e-05    -4.503    -4.634    -0.131     (0)  
   H2(Cysteine)    6.145e-08   6.152e-08    -7.211    -7.211     0.000     (0)  
   H(Cysteine)-    2.692e-10   2.497e-10    -9.570    -9.603    -0.033     (0)  
Ferric        5.915e-08
   Ferric(OH)2+    3.761e-08   3.488e-08    -7.425    -7.457    -0.033     (0)  
   Ferric(OH)3     2.140e-08   2.143e-08    -7.669    -7.669     0.000     (0)  
   Ferric(OH)4-    1.005e-10   9.319e-11    -9.998   -10.031    -0.033     (0)  
   FerricOH+2      2.986e-11   2.209e-11   -10.525   -10.656    -0.131     (0)  
   FerricH2PO4+2   1.348e-14   9.972e-15   -13.870   -14.001    -0.131     (0)  
   FerricHPO4+     3.183e-15   2.952e-15   -14.497   -14.530    -0.033     (0)  
   Ferric+3        1.327e-15   7.177e-16   -14.877   -15.144    -0.267     (0)  
   FerricSulfateO4+   5.174e-16   4.798e-16   -15.286   -15.319    -0.033     (0)  
   FerricCl+2      5.736e-17   4.244e-17   -16.241   -16.372    -0.131     (0)  
   Ferric(SulfateO4)2-   6.902e-19   6.401e-19   -18.161   -18.194    -0.033     (0)  
   FerricCl2+      4.003e-19   3.713e-19   -18.398   -18.430    -0.033     (0)  
   Ferric2(OH)2+4   4.383e-20   1.314e-20   -19.358   -19.881    -0.523     (0)  
   FerricHSulfateO4+2   3.641e-22   2.694e-22   -21.439   -21.570    -0.131     (0)  
   FerricCl3       7.263e-23   7.271e-23   -22.139   -22.138     0.000     (0)  
   Ferric3(OH)4+5   6.291e-25   9.576e-26   -24.201   -25.019    -0.818     (0)  
Ferrous       8.008e-08
   Ferrous+2       7.309e-08   5.471e-08    -7.136    -7.262    -0.126     (0)  
   FerrousHPO4     3.325e-09   3.329e-09    -8.478    -8.478     0.000     (0)  
   FerrousH2PO4+   1.526e-09   1.415e-09    -8.816    -8.849    -0.033     (0)  
   FerrousHCO3+    9.996e-10   9.271e-10    -9.000    -9.033    -0.033     (0)  
   FerrousSulfateO4   5.926e-10   5.932e-10    -9.227    -9.227     0.000     (0)  
   Ferrous(HSulfide)2   2.511e-10   2.514e-10    -9.600    -9.600     0.000     (0)  
   FerrousCl+      1.595e-10   1.479e-10    -9.797    -9.830    -0.033     (0)  
   FerrousOH+      8.894e-11   8.249e-11   -10.051   -10.084    -0.033     (0)  
   FerrousCO3      4.968e-11   4.974e-11   -10.304   -10.303     0.000     (0)  
   Ferrous(HSulfide)3-   6.701e-14   6.215e-14   -13.174   -13.207    -0.033     (0)  
   FerrousHSulfateO4+   8.816e-16   8.177e-16   -15.055   -15.087    -0.033     (0)  
Glutamine     3.152e-05
   Glutamine-2     3.151e-05   2.332e-05    -4.501    -4.632    -0.131     (0)  
   H2(Glutamine)   1.382e-09   1.383e-09    -8.860    -8.859     0.000     (0)  
   H(Glutamine)-   7.798e-10   7.233e-10    -9.108    -9.141    -0.033     (0)  
Glycine       3.168e-05
   Glycine-        3.168e-05   2.938e-05    -4.499    -4.532    -0.033     (0)  
   H2(Glycine)+    5.546e-09   5.143e-09    -8.256    -8.289    -0.033     (0)  
   H(Glycine)      1.346e-09   1.348e-09    -8.871    -8.870     0.000     (0)  
H(0)          1.202e-03
   H2              6.009e-04   6.016e-04    -3.221    -3.221     0.000     (0)  
K             6.398e-05
   K+              6.395e-05   5.926e-05    -4.194    -4.227    -0.033     (0)  
   KSulfateO4-     2.738e-08   2.539e-08    -7.563    -7.595    -0.033     (0)  
   KHPO4-          1.904e-09   1.766e-09    -8.720    -8.753    -0.033     (0)  
   KOH             9.787e-13   9.798e-13   -12.009   -12.009     0.000     (0)  
Methane       5.367e-07
   MethaneH4       5.367e-07   5.373e-07    -6.270    -6.270     0.000     (0)  
Mg            4.300e-04
   Mg+2            4.206e-04   3.146e-04    -3.376    -3.502    -0.126     (0)  
   MgSulfateO4     4.492e-06   4.497e-06    -5.348    -5.347     0.000     (0)  
   MgHPO4          3.561e-06   3.565e-06    -5.448    -5.448     0.000     (0)  
   MgHCO3+         6.727e-07   6.239e-07    -6.172    -6.205    -0.033     (0)  
   MgH2PO4+        5.706e-07   5.292e-07    -6.244    -6.276    -0.033     (0)  
   MgPO4-          4.327e-08   4.013e-08    -7.364    -7.397    -0.033     (0)  
   MgCO3           1.137e-08   1.138e-08    -7.944    -7.944     0.000     (0)  
   MgOH+           5.873e-09   5.447e-09    -8.231    -8.264    -0.033     (0)  
Na            3.204e-04
   Na+             3.203e-04   2.973e-04    -3.494    -3.527    -0.032     (0)  
   NaSulfateO4-    9.795e-08   9.084e-08    -7.009    -7.042    -0.033     (0)  
   NaHCO3          2.830e-08   2.833e-08    -7.548    -7.548     0.000     (0)  
   NaHPO4-         9.552e-09   8.859e-09    -8.020    -8.053    -0.033     (0)  
   NaCO3-          2.262e-10   2.098e-10    -9.646    -9.678    -0.033     (0)  
   NaOH            9.354e-12   9.365e-12   -11.029   -11.029     0.000     (0)  
Nitrate       3.629e-04
   NitrateO3-      3.629e-04   3.366e-04    -3.440    -3.473    -0.033     (0)  
O(0)          0.000e+00
   O2              0.000e+00   0.000e+00   -85.939   -85.939     0.000     (0)  
Ozero         1.615e-04
   Ozero2          8.075e-05   8.084e-05    -4.093    -4.092     0.000     (0)  
P             8.770e-05
   H2PO4-          5.563e-05   5.162e-05    -4.255    -4.287    -0.032     (0)  
   HPO4-2          2.067e-05   1.528e-05    -4.685    -4.816    -0.131     (0)  
   CaHPO4          6.100e-06   6.106e-06    -5.215    -5.214     0.000     (0)  
   MgHPO4          3.561e-06   3.565e-06    -5.448    -5.448     0.000     (0)  
   CaH2PO4+        1.038e-06   9.625e-07    -5.984    -6.017    -0.033     (0)  
   MgH2PO4+        5.706e-07   5.292e-07    -6.244    -6.276    -0.033     (0)  
   CaPO4-          7.428e-08   6.890e-08    -7.129    -7.162    -0.033     (0)  
   MgPO4-          4.327e-08   4.013e-08    -7.364    -7.397    -0.033     (0)  
   NaHPO4-         9.552e-09   8.859e-09    -8.020    -8.053    -0.033     (0)  
   FerrousHPO4     3.325e-09   3.329e-09    -8.478    -8.478     0.000     (0)  
   KHPO4-          1.904e-09   1.766e-09    -8.720    -8.753    -0.033     (0)  
   FerrousH2PO4+   1.526e-09   1.415e-09    -8.816    -8.849    -0.033     (0)  
   PO4-3           6.482e-11   3.286e-11   -10.188   -10.483    -0.295     (0)  
   FerricH2PO4+2   1.348e-14   9.972e-15   -13.870   -14.001    -0.131     (0)  
   FerricHPO4+     3.183e-15   2.952e-15   -14.497   -14.530    -0.033     (0)  
Sulfate       9.553e-05
   SulfateO4-2     8.199e-05   6.098e-05    -4.086    -4.215    -0.129     (0)  
   CaSulfateO4     8.855e-06   8.865e-06    -5.053    -5.052     0.000     (0)  
   MgSulfateO4     4.492e-06   4.497e-06    -5.348    -5.347     0.000     (0)  
   NaSulfateO4-    9.795e-08   9.084e-08    -7.009    -7.042    -0.033     (0)  
   AmmH4SulfateO4-   6.579e-08   6.102e-08    -7.182    -7.215    -0.033     (0)  
   KSulfateO4-     2.738e-08   2.539e-08    -7.563    -7.595    -0.033     (0)  
   HSulfateO4-     1.340e-09   1.243e-09    -8.873    -8.905    -0.033     (0)  
   FerrousSulfateO4   5.926e-10   5.932e-10    -9.227    -9.227     0.000     (0)  
   CaHSulfateO4+   1.174e-11   1.089e-11   -10.930   -10.963    -0.033     (0)  
   FerrousHSulfateO4+   8.816e-16   8.177e-16   -15.055   -15.087    -0.033     (0)  
   FerricSulfateO4+   5.174e-16   4.798e-16   -15.286   -15.319    -0.033     (0)  
   Ferric(SulfateO4)2-   6.902e-19   6.401e-19   -18.161   -18.194    -0.033     (0)  
   FerricHSulfateO4+2   3.641e-22   2.694e-22   -21.439   -21.570    -0.131     (0)  
Sulfide       6.609e-06
   H2Sulfide       4.158e-06   4.163e-06    -5.381    -5.381     0.000     (0)  
   HSulfide-       2.451e-06   2.271e-06    -5.611    -5.644    -0.033     (0)  
   Ferrous(HSulfide)2   2.511e-10   2.514e-10    -9.600    -9.600     0.000     (0)  
   Sulfide-2       1.758e-12   1.308e-12   -11.755   -11.883    -0.128     (0)  
   Ferrous(HSulfide)3-   6.701e-14   6.215e-14   -13.174   -13.207    -0.033     (0)  
Threonine     3.152e-05
   Threonine-2     3.151e-05   2.332e-05    -4.501    -4.632    -0.131     (0)  
   H2(Threonine)   1.350e-09   1.352e-09    -8.870    -8.869     0.000     (0)  
   H(Threonine)-   7.447e-10   6.907e-10    -9.128    -9.161    -0.033     (0)  
Tyrosine      3.152e-05
   Tyrosine-2      3.151e-05   2.332e-05    -4.501    -4.632    -0.131     (0)  
   H2(Tyrosine)    1.319e-09   1.321e-09    -8.880    -8.879     0.000     (0)  
   H(Tyrosine)-    8.356e-10   7.750e-10    -9.078    -9.111    -0.033     (0)  

------------------------------Saturation indices-------------------------------

  Phase               SI** log IAP   log K(298 K,   0 atm)

  FixpH            -6.68     -6.68    0.00  H+
  H2(g)            -0.07     -3.22   -3.15  H2
  H2O(g)           -1.51     -0.00    1.51  H2O
  Halite           -7.82     -6.23    1.58  NaCl
  Hydroxyapatite    0.00     -3.42   -3.42  Ca5(PO4)3OH
  ORM             813.96    -65.27 -879.23  C5H4O2Amm
  redoxAnhydrite   -2.99     -7.35   -4.36  CaSulfateO4
  redoxAragonite   -2.22    -10.56   -8.34  CaCO3
  redoxCalcite     -2.08    -10.56   -8.48  CaCO3
  redoxCH4(g)      -3.41     -6.27   -2.86  MethaneH4
  redoxCO2(g)      -2.63     -4.10   -1.47  CO2
  redoxDolomite    -4.39    -21.48  -17.09  CaMg(CO3)2
  redoxFe(OH)3(a)  -0.00      4.89    4.89  Ferric(OH)3
  redoxFeS(ppt)    -2.31     -6.23   -3.92  FerrousSulfide
  redoxGoethite     5.89      4.89   -1.00  FerricOOH
  redoxGypsum      -2.77     -7.35   -4.58  CaSulfateO4:2H2O
  redoxH2S(g)      -4.38     -5.38   -1.00  H2Sulfide
  redoxHematite    13.79      9.78   -4.01  Ferric2O3
  redoxJarosite-K  -8.81    -18.02   -9.21  KFerric3(SulfateO4)2(OH)6
  redoxMackinawite  -1.58     -6.23   -4.65  FerrousSulfide
  redoxMelanterite  -9.27    -11.48   -2.21  FerrousSulfateO4:7H2O
  redoxNH3(g)      -8.45     -6.68    1.77  AmmH3
  redoxO2(g)       -1.20     -4.09   -2.89  Ozero2
  redoxPyrite      -0.00    -18.48  -18.48  FerrousSulfide2
  redoxSiderite    -3.79    -14.68  -10.89  FerrousCO3
  redoxSulfur     -10.19     -5.31    4.88  Sulfide
  redoxVivianite   -6.75    -42.75  -36.00  Ferrous3(PO4)2:8H2O

**For a gas, SI = log10(fugacity). Fugacity = pressure * phi / 1 atm.
  For ideal gases, phi = 1.

Reaction step 2.

Using solution 1.	
Using exchange 1.	Exchange assemblage after simulation 3.
Using surface 1.	
Using pure phase assemblage 1.	
Using gas phase 1.	fixed volume gas phase
Using kinetics 1.	Decomposition  

Kinetics 1.	Decomposition  

	Time step: 1 seconds  (Incremented time: 2 seconds)

	Rate name       Delta Moles Total Moles   Reactant        Coefficient

	BA                6.295e-02   6.914e-01   CH2O                      0
	OAC               2.331e-02   9.109e-02   CH2O                      0
	Aero              1.813e-03   1.003e+00   CH2O                      0
	                                          HCO3                  -1.44
	                                          Ozero2                 1.44
	SulR              3.983e-07   1.000e+00   CH2O                      0
	                                          HCO3                     -9
	                                          HSulfide-              -4.5
	                                          SulfateO4-2             4.5
	Meth             -0.000e+00   1.000e+00   CH2O                      0
	                                          HCO3                  20.24
	                                          MethaneH4            -20.24
	POM              -1.406e-01   4.425e+00   CH2O                      0
	MOM               7.300e-02   1.605e+01   CH2O                      0
	DOM              -1.296e-01   6.987e-02   CH2O                      0
	QOM              -5.352e-03   1.753e+00   CH2O                      0
	EP                6.114e-04   5.314e-02   CH2O                      0
	EM                6.114e-04   5.314e-02   CH2O                      0
	respiration       1.450e-01   3.391e-01   CH2O                      0
	Tot              -1.451e-01   2.314e+01   CH2O                      0
	Salt              9.753e-04   2.960e-03   CH2O                      0
	                                          Ca+2                     -2
	                                          Cl-                     -28
	                                          HCO3                     -3
	                                          K+                       -1
	                                          Mg+2                     -4
	                                          Na+                     -25
	                                          Nitrate                  -5
	                                          Sulfate                  -1
	Caero             4.425e-03   6.342e-03   CH2O                      0
	Csulr             3.983e-06   4.633e-06   CH2O                      0
	Cmeth            -0.000e+00   0.000e+00   CH2O                      0

-----------------------------------Gas phase-----------------------------------

Total pressure:  0.07      atmospheres 
    Gas volume:   9.00e-01 liters
  Molar volume:   3.58e+02 liters/mole

                                                        Moles in gas
                                            ----------------------------------
Component                log P           P     Initial       Final       Delta

redoxCH4(g)              -3.41   3.894e-04   1.432e-05   1.432e-05   4.801e-09
redoxCO2(g)              -2.31   4.879e-03   8.634e-05   1.795e-04   9.314e-05
redoxO2(g)               -1.20   6.310e-02   2.321e-03   2.321e-03   0.000e+00

-------------------------------Phase assemblage--------------------------------

                                                      Moles in assemblage
Phase               SI  log IAP  log K(T, P)   Initial       Final       Delta

Hydroxyapatite   -0.00    -3.42     -3.42    5.399e-04   5.723e-04   3.240e-05
redoxCalcite     -1.74   -10.22     -8.48    0.000e+00           0   0.000e+00
redoxFe(OH)3(a)   -0.00     4.89      4.89    2.005e+00   2.005e+00  -4.475e-08
redoxFeS(ppt)    -2.16    -6.08     -3.92    0.000e+00           0   0.000e+00
redoxO2(g)       -1.20    -4.09     -2.89    1.013e+00   1.010e+00  -2.610e-03
redoxPyrite       0.00   -18.48    -18.48    1.420e-03   1.392e-03  -2.853e-05

------------------------------Surface composition------------------------------

Diffuse Double Layer Surface-Complexation Model

H             
	 -4.565e-09  Surface + diffuse layer charge, eq
	 -5.979e-01  Surface charge, eq
	 -2.111e-02  sigma, C/m²
	 -7.562e-02  psi, V
	  2.943e+00  -F*psi/RT
	  1.898e+01  exp(-F*psi/RT)
	  3.417e+04  specific area, m²/g
	  2.734e+06  m² for   8.000e+01 g

	Water in diffuse layer: 2.734e+01 kg, 94.2% of total DDL-water.

	Total moles in diffuse layer (excluding water), Donnan calculation.
	Donnan Layer potential, psi_DL = -2.084e-02 V.
	Boltzmann factor, exp(-psi_DL * F / RT) = 2.251e+00 (= c_DL / c_free if z is +1).

	Element       	     Moles
	Alanine       	  1.3722e-04
	Amm           	  6.4066e-03
	C             	  8.8205e-03
	Ca            	  2.1606e-01
	Cl            	  4.3302e-02
	Cysteine      	  1.3820e-04
	Ferric        	  3.4128e-06
	Ferrous       	  1.6312e-05
	Glutamine     	  1.3711e-04
	Glycine       	  3.3297e-04
	H             	  9.5261e-02
	K             	  5.0108e-03
	Methane       	  1.4668e-05
	Mg            	  9.2976e-02
	Na            	  2.9500e-02
	Nitrate       	  7.5806e-03
	O             	  5.4406e-02
	Ozero         	  4.4121e-03
	P             	  9.9173e-04
	Sulfate       	  1.4401e-03
	Sulfide       	  1.9020e-04
	Threonine     	  1.3711e-04
	Tyrosine      	  1.3711e-04

H_a           
	  3.837e-02  moles
	                                   Mole                     Log
	Species               Moles    Fraction    Molality    Molality

	H_a-              3.787e-02       0.987   2.008e-02      -1.697
	H_aCa+            3.646e-04       0.010   1.933e-04      -3.714
	H_aMg+            1.252e-04       0.003   6.635e-05      -4.178
	H_aH              7.033e-06       0.000   3.729e-06      -5.428

H_ab          
	  6.378e-02  moles
	                                   Mole                     Log
	Species               Moles    Fraction    Molality    Molality

	H_ab-2            6.338e-02       0.994   3.360e-02      -1.474
	H_abCa            1.930e-04       0.003   1.023e-04      -3.990
	H_abH-            1.516e-04       0.002   8.039e-05      -4.095
	H_abMg            5.262e-05       0.001   2.789e-05      -4.555
	H_abH2            2.816e-08       0.000   1.493e-08      -7.826

H_ad          
	  6.378e-02  moles
	                                   Mole                     Log
	Species               Moles    Fraction    Molality    Molality

	H_ad-2            3.090e-02       0.484   1.638e-02      -1.786
	H_adCa            1.597e-02       0.250   8.468e-03      -2.072
	H_adH-            1.255e-02       0.197   6.654e-03      -2.177
	H_adMg            4.356e-03       0.068   2.309e-03      -2.637
	H_adH2            2.331e-06       0.000   1.236e-06      -5.908

H_af          
	  6.378e-02  moles
	                                   Mole                     Log
	Species               Moles    Fraction    Molality    Molality

	H_afH-            5.725e-02       0.898   3.035e-02      -1.518
	H_afCa            6.493e-03       0.102   3.442e-03      -2.463
	H_af-2            2.285e-05       0.000   1.212e-05      -4.917
	H_afH2            1.063e-05       0.000   5.636e-06      -5.249
	H_afMg            3.007e-06       0.000   1.594e-06      -5.798

H_ah          
	  6.378e-02  moles
	                                   Mole                     Log
	Species               Moles    Fraction    Molality    Molality

	H_ahH-            6.375e-02       1.000   3.380e-02      -1.471
[...]
	Species               Moles    Fraction    Molality    Molality

	H_fH              1.911e-02       0.996   1.021e-02      -1.991
	H_fCa+            4.921e-05       0.003   2.628e-05      -4.580
	H_fMg+            1.711e-05       0.001   9.139e-06      -5.039
	H_f-              1.027e-05       0.001   5.485e-06      -5.261

H_g           
	  1.919e-02  moles
	                                   Mole                     Log
	Species               Moles    Fraction    Molality    Molality

	H_gH              1.912e-02       0.997   1.021e-02      -1.991
	H_gCa+            4.923e-05       0.003   2.629e-05      -4.580
	H_gMg+            1.712e-05       0.001   9.144e-06      -5.039
	H_g-              1.485e-07       0.000   7.933e-08      -7.101

H_h           
	  1.919e-02  moles
	                                   Mole                     Log
	Species               Moles    Fraction    Molality    Molality

	H_hH              1.912e-02       0.997   1.021e-02      -1.991
	H_hCa+            4.923e-05       0.003   2.629e-05      -4.580
	H_hMg+            1.712e-05       0.001   9.144e-06      -5.039
	H_h-              2.147e-09       0.000   1.147e-09      -8.941

Hfo           
	  4.235e-13  Surface + diffuse layer charge, eq
	 -1.264e-05  Surface charge, eq
	 -7.260e-06  sigma, C/m²
	 -9.373e-06  psi, V
	  3.648e-04  -F*psi/RT
	  1.000e+00  exp(-F*psi/RT)
	  6.000e+02  specific area, m²/g
	  1.680e+05  m² for   2.800e+02 g

	Water in diffuse layer: 1.680e+00 kg,  5.8% of total DDL-water.

	Total moles in diffuse layer (excluding water), Donnan calculation.
	Donnan Layer potential, psi_DL = -8.508e-07 V.
	Boltzmann factor, exp(-psi_DL * F / RT) = 1.000e+00 (= c_DL / c_free if z is +1).

	Element       	     Moles
	Alanine       	  1.4921e-05
	Amm           	  5.5988e-04
	C             	  3.2396e-02
	Ca            	  3.9041e-02
	Cl            	  1.0485e-01
	Cysteine      	  1.4908e-05
	Ferric        	  4.2858e-07
	Ferrous       	  1.9048e-07
	Glutamine     	  1.4923e-05
	Glycine       	  2.5713e-05
	H             	  1.2363e-01
	K             	  1.1785e-03
	Methane       	  8.9130e-07
	Mg            	  1.7602e-02
	Na            	  2.7958e-02
	Nitrate       	  1.8711e-02
	O             	  1.4705e-01
	Ozero         	  2.6453e-04
	P             	  1.6182e-04
	Sulfate       	  3.2498e-03
	Sulfide       	  4.0702e-04
	Threonine     	  1.4923e-05
	Tyrosine      	  1.4923e-05

Hfo_s         
	  5.000e-06  moles
	                                   Mole                     Log
	Species               Moles    Fraction    Molality    Molality

	Hfo_sOHCa+2       4.861e-06       0.972   2.596e-06      -5.586
	Hfo_sOH2+         1.327e-07       0.027   7.090e-08      -7.149
	Hfo_sOH           6.313e-09       0.001   3.372e-09      -8.472
	Hfo_sOFerrous+    1.912e-11       0.000   1.021e-11     -10.991
	Hfo_sO-           6.877e-12       0.000   3.673e-12     -11.435

Hfo_w         
	  2.000e-04  moles
	                                   Mole                     Log
	Species               Moles    Fraction    Molality    Molality

	Hfo_wHPO4-        7.534e-05       0.377   4.024e-05      -4.395
	Hfo_wH2PO4        6.454e-05       0.323   3.447e-05      -4.463
	Hfo_wOH2+         5.564e-05       0.278   2.972e-05      -4.527
	Hfo_wOH           2.646e-06       0.013   1.413e-06      -5.850
	Hfo_wPO4-2        1.494e-06       0.007   7.977e-07      -6.098
	Hfo_wOMg+         2.386e-07       0.001   1.274e-07      -6.895
	Hfo_wSulfateO4-   6.186e-08       0.000   3.304e-08      -7.481
	Hfo_wOCa+         2.860e-08       0.000   1.527e-08      -7.816
	Hfo_wOHSulfateO4-2   5.852e-09       0.000   3.125e-09      -8.505
	Hfo_wO-           2.883e-09       0.000   1.540e-09      -8.813
	Hfo_wOFerrous+    7.481e-11       0.000   3.996e-11     -10.398
	Hfo_wOFerrousOH   1.862e-13       0.000   9.942e-14     -13.003

-----------------------------Exchange composition------------------------------

X                1.600e+01 mol

	                               Equiv-    Equivalent      Log 
	Species             Moles      alents      Fraction     Gamma

	CaX2              4.653e+00   9.307e+00   5.817e-01     0.000
	MgX2              2.748e+00   5.496e+00   3.435e-01     0.000
	NaX               1.088e+00   1.088e+00   6.803e-02     0.000
	KX                7.088e-02   7.088e-02   4.430e-03     0.000
	AmmH4X            3.662e-02   3.662e-02   2.289e-03     0.000
	HX                1.115e-03   1.115e-03   6.971e-05    -0.086
	FerrousX2         4.680e-05   9.359e-05   5.850e-06    -0.415

-----------------------------Solution composition------------------------------

	Elements           Molality       Moles

	Alanine           8.882e-06   1.663e-05
	Amm               3.333e-04   6.240e-04
	C                 1.928e-02   3.611e-02
	Ca                2.324e-02   4.351e-02
	Cl                6.241e-02   1.169e-01
	Cysteine          8.874e-06   1.662e-05
	Ferric            2.551e-07   4.776e-07
	Ferrous           1.134e-07   2.123e-07
	Glutamine         8.883e-06   1.663e-05
	Glycine           1.531e-05   2.866e-05
	K                 7.015e-04   1.313e-03
	Methane           5.305e-07   9.934e-07
	Mg                1.048e-02   1.962e-02
	Na                1.664e-02   3.116e-02
	Nitrate           1.114e-02   2.085e-02
	Ozero             1.575e-04   2.948e-04
	P                 9.632e-05   1.804e-04
	Sulfate           1.935e-03   3.622e-03
	Sulfide           2.423e-04   4.536e-04
	Threonine         8.883e-06   1.663e-05
	Tyrosine          8.883e-06   1.663e-05

----------------------------Description of solution----------------------------

                                       pH  =   5.967      Charge balance
                                       pe  =  -6.801      Adjusted to redox equilibrium
      Specific Conductance (µS/cm,  25°C)  = 8180
                        Activity of water  =   0.997
                 Ionic strength (mol/kgw)  =   1.151e-01
                       Mass of water (kg)  =   1.872e+00
                 Total alkalinity (eq/kg)  =   7.547e-03
                       Total CO2 (mol/kg)  =   1.928e-02
                         Temperature (°C)  =  25.00
                           Pressure (atm)  =  0.42
                  Electrical balance (eq)  =  -1.854e-07
 Percent error, 100*(Cat-|An|)/(Cat+|An|)  =  -0.00
                               Iterations  = 107
                                  Total H  = 2.079930e+02
                                  Total O  = 1.040915e+02

----------------------------Distribution of species----------------------------

                                               Log       Log       Log    mole V
   Species          Molality    Activity  Molality  Activity     Gamma   cm³/mol

   H+              1.315e-06   1.078e-06    -5.881    -5.967    -0.086      0.00
   OH-             1.233e-08   9.258e-09    -7.909    -8.033    -0.124     (0)  
   H2O             5.551e+01   9.970e-01     1.744    -0.001     0.000     18.07
Alanine       8.882e-06
   Alanine-2       8.855e-06   3.168e-06    -5.053    -5.499    -0.446     (0)  
   H2(Alanine)     2.658e-08   2.729e-08    -7.575    -7.564     0.012     (0)  
   H(Alanine)-     9.886e-10   7.646e-10    -9.005    -9.117    -0.112     (0)  
Amm           3.333e-04
   AmmH4+          3.317e-04   2.429e-04    -3.479    -3.615    -0.135     (0)  
   AmmH4SulfateO4-   1.452e-06   1.123e-06    -5.838    -5.950    -0.112     (0)  
   AmmH3           1.250e-07   1.284e-07    -6.903    -6.891     0.012     (0)  
C(4)          1.928e-02
   CO2             1.185e-02   1.217e-02    -1.926    -1.915     0.012     (0)  
   HCO3-           6.421e-03   5.007e-03    -2.192    -2.300    -0.108     (0)  
   CaHCO3+         6.755e-04   5.267e-04    -3.170    -3.278    -0.108     (0)  
   MgHCO3+         2.930e-04   2.266e-04    -3.533    -3.645    -0.112     (0)  
   NaHCO3          3.520e-05   3.614e-05    -4.453    -4.442     0.012     (0)  
   CaCO3           2.938e-06   3.017e-06    -5.532    -5.520     0.012     (0)  
   MgCO3           7.829e-07   8.039e-07    -6.106    -6.095     0.012     (0)  
   CO3-2           5.891e-07   2.178e-07    -6.230    -6.662    -0.432     (0)  
   NaCO3-          6.732e-08   5.206e-08    -7.172    -7.283    -0.112     (0)  
   FerrousHCO3+    1.884e-08   1.457e-08    -7.725    -7.837    -0.112     (0)  
   FerrousCO3      1.481e-10   1.520e-10    -9.830    -9.818     0.012     (0)  
Ca            2.324e-02
   Ca+2            2.196e-02   8.245e-03    -1.658    -2.084    -0.425     (0)  
   CaHCO3+         6.755e-04   5.267e-04    -3.170    -3.278    -0.108     (0)  
   CaSulfateO4     5.750e-04   5.905e-04    -3.240    -3.229     0.012     (0)  
   CaH2PO4+        1.127e-05   8.719e-06    -4.948    -5.060    -0.112     (0)  
   CaHPO4          1.048e-05   1.076e-05    -4.980    -4.968     0.012     (0)  
   CaCO3           2.938e-06   3.017e-06    -5.532    -5.520     0.012     (0)  
   CaPO4-          3.053e-08   2.362e-08    -7.515    -7.627    -0.112     (0)  
   CaHSulfateO4+   4.822e-09   3.729e-09    -8.317    -8.428    -0.112     (0)  
   CaOH+           1.636e-09   1.265e-09    -8.786    -8.898    -0.112     (0)  
Cl            6.241e-02
   Cl-             6.241e-02   4.704e-02    -1.205    -1.328    -0.123     (0)  
   FerrousCl+      2.443e-09   1.889e-09    -8.612    -8.724    -0.112     (0)  
   FerricCl+2      3.906e-13   1.397e-13   -12.408   -12.855    -0.446     (0)  
   FerricCl2+      3.797e-14   2.936e-14   -13.421   -13.532    -0.112     (0)  
   FerricCl3       1.345e-16   1.381e-16   -15.871   -15.860     0.012     (0)  
Cysteine      8.874e-06
   Cysteine-2      8.663e-06   3.099e-06    -5.062    -5.509    -0.446     (0)  
   H2(Cysteine)    2.114e-07   2.170e-07    -6.675    -6.663     0.012     (0)  
   H(Cysteine)-    2.216e-10   1.714e-10    -9.654    -9.766    -0.112     (0)  
Ferric        2.551e-07
   Ferric(OH)2+    2.326e-07   1.799e-07    -6.633    -6.745    -0.112     (0)  
   Ferric(OH)3     2.087e-08   2.143e-08    -7.681    -7.669     0.012     (0)  
   FerricOH+2      1.642e-09   5.873e-10    -8.785    -9.231    -0.446     (0)  
   Ferric(OH)4-    2.337e-11   1.807e-11   -10.631   -10.743    -0.112     (0)  
   FerricH2PO4+2   3.058e-12   1.094e-12   -11.515   -11.961    -0.446     (0)  
   Ferric+3        5.893e-13   9.836e-14   -12.230   -13.007    -0.778     (0)  
   FerricSulfateO4+   5.005e-13   3.871e-13   -12.301   -12.412    -0.112     (0)  
   FerricCl+2      3.906e-13   1.397e-13   -12.408   -12.855    -0.446     (0)  
   FerricHPO4+     8.148e-14   6.302e-14   -13.089   -13.201    -0.112     (0)  
   FerricCl2+      3.797e-14   2.936e-14   -13.421   -13.532    -0.112     (0)  
   Ferric(SulfateO4)2-   3.930e-15   3.040e-15   -14.406   -14.517    -0.112     (0)  
   Ferric2(OH)2+4   5.666e-16   9.285e-18   -15.247   -17.032    -1.785     (0)  
   FerricCl3       1.345e-16   1.381e-16   -15.871   -15.860     0.012     (0)  
   FerricHSulfateO4+2   3.123e-18   1.117e-18   -17.505   -17.952    -0.446     (0)  
   Ferric3(OH)4+5   2.150e-19   3.489e-22   -18.667   -21.457    -2.790     (0)  
Ferrous       1.134e-07
   Ferrous+2       7.562e-08   2.910e-08    -7.121    -7.536    -0.415     (0)  
   FerrousHCO3+    1.884e-08   1.457e-08    -7.725    -7.837    -0.112     (0)  
   Ferrous(HSulfide)2   1.341e-08   1.377e-08    -7.872    -7.861     0.012     (0)  
   FerrousCl+      2.443e-09   1.889e-09    -8.612    -8.724    -0.112     (0)  
   FerrousSulfateO4   1.809e-09   1.857e-09    -8.743    -8.731     0.012     (0)  
   FerrousH2PO4+   7.793e-10   6.027e-10    -9.108    -9.220    -0.112     (0)  
   FerrousHPO4     2.685e-10   2.757e-10    -9.571    -9.560     0.012     (0)  
   FerrousCO3      1.481e-10   1.520e-10    -9.830    -9.818     0.012     (0)  
   Ferrous(HSulfide)3-   4.470e-11   3.457e-11   -10.350   -10.461    -0.112     (0)  
   FerrousOH+      1.100e-11   8.509e-12   -10.959   -11.070    -0.112     (0)  
   FerrousHSulfateO4+   1.702e-14   1.316e-14   -13.769   -13.881    -0.112     (0)  
Glutamine     8.883e-06
   Glutamine-2     8.878e-06   3.176e-06    -5.052    -5.498    -0.446     (0)  
   H2(Glutamine)   4.849e-09   4.980e-09    -8.314    -8.303     0.012     (0)  
   H(Glutamine)-   6.549e-10   5.065e-10    -9.184    -9.295    -0.112     (0)  
Glycine       1.531e-05
   Glycine-        1.523e-05   1.178e-05    -4.817    -4.929    -0.112     (0)  
   H2(Glycine)+    7.048e-08   5.451e-08    -7.152    -7.264    -0.112     (0)  
   H(Glycine)      2.706e-09   2.778e-09    -8.568    -8.556     0.012     (0)  
H(0)          6.421e-02
   H2              3.210e-02   3.297e-02    -1.493    -1.482     0.012     (0)  
K             7.015e-04
   K+              6.997e-04   5.274e-04    -3.155    -3.278    -0.123     (0)  
   KSulfateO4-     1.720e-06   1.330e-06    -5.764    -5.876    -0.112     (0)  
   KHPO4-          3.165e-09   2.448e-09    -8.500    -8.611    -0.112     (0)  
   KOH             1.647e-12   1.691e-12   -11.783   -11.772     0.012     (0)  
Methane       5.305e-07
   MethaneH4       5.305e-07   5.448e-07    -6.275    -6.264     0.012     (0)  
Mg            1.048e-02
   Mg+2            9.853e-03   3.868e-03    -2.006    -2.413    -0.406     (0)  
   MgSulfateO4     3.169e-04   3.254e-04    -3.499    -3.488     0.012     (0)  
   MgHCO3+         2.930e-04   2.266e-04    -3.533    -3.645    -0.112     (0)  
   MgH2PO4+        6.735e-06   5.209e-06    -5.172    -5.283    -0.112     (0)  
   MgHPO4          6.646e-06   6.825e-06    -5.177    -5.166     0.012     (0)  
   MgCO3           7.829e-07   8.039e-07    -6.106    -6.095     0.012     (0)  
   MgPO4-          1.932e-08   1.494e-08    -7.714    -7.826    -0.112     (0)  
   MgOH+           1.679e-08   1.299e-08    -7.775    -7.886    -0.112     (0)  
Na            1.664e-02
   Na+             1.658e-02   1.284e-02    -1.781    -1.892    -0.111     (0)  
   NaHCO3          3.520e-05   3.614e-05    -4.453    -4.442     0.012     (0)  
   NaSulfateO4-    2.986e-05   2.309e-05    -4.525    -4.637    -0.112     (0)  
   NaHPO4-         7.703e-08   5.957e-08    -7.113    -7.225    -0.112     (0)  
   NaCO3-          6.732e-08   5.206e-08    -7.172    -7.283    -0.112     (0)  
   NaOH            7.638e-11   7.843e-11   -10.117   -10.106     0.012     (0)  
Nitrate       1.114e-02
   NitrateO3-      1.114e-02   8.614e-03    -1.953    -2.065    -0.112     (0)  
O(0)          0.000e+00
   O2              0.000e+00   0.000e+00   -89.430   -89.419     0.012     (0)  
Ozero         1.575e-04
   Ozero2          7.873e-05   8.084e-05    -4.104    -4.092     0.012     (0)  
P             9.632e-05
   H2PO4-          5.389e-05   4.133e-05    -4.268    -4.384    -0.115     (0)  
   CaH2PO4+        1.127e-05   8.719e-06    -4.948    -5.060    -0.112     (0)  
   CaHPO4          1.048e-05   1.076e-05    -4.980    -4.968     0.012     (0)  
   HPO4-2          7.168e-06   2.380e-06    -5.145    -5.623    -0.479     (0)  
   MgH2PO4+        6.735e-06   5.209e-06    -5.172    -5.283    -0.112     (0)  
   MgHPO4          6.646e-06   6.825e-06    -5.177    -5.166     0.012     (0)  
   NaHPO4-         7.703e-08   5.957e-08    -7.113    -7.225    -0.112     (0)  
   CaPO4-          3.053e-08   2.362e-08    -7.515    -7.627    -0.112     (0)  
   MgPO4-          1.932e-08   1.494e-08    -7.714    -7.826    -0.112     (0)  
   KHPO4-          3.165e-09   2.448e-09    -8.500    -8.611    -0.112     (0)  
   FerrousH2PO4+   7.793e-10   6.027e-10    -9.108    -9.220    -0.112     (0)  
   FerrousHPO4     2.685e-10   2.757e-10    -9.571    -9.560     0.012     (0)  
   PO4-3           1.189e-11   9.954e-13   -10.925   -12.002    -1.077     (0)  
   FerricH2PO4+2   3.058e-12   1.094e-12   -11.515   -11.961    -0.446     (0)  
   FerricHPO4+     8.148e-14   6.302e-14   -13.089   -13.201    -0.112     (0)  
Sulfate       1.935e-03
   SulfateO4-2     1.009e-03   3.589e-04    -2.996    -3.445    -0.449     (0)  
   CaSulfateO4     5.750e-04   5.905e-04    -3.240    -3.229     0.012     (0)  
   MgSulfateO4     3.169e-04   3.254e-04    -3.499    -3.488     0.012     (0)  
   NaSulfateO4-    2.986e-05   2.309e-05    -4.525    -4.637    -0.112     (0)  
   KSulfateO4-     1.720e-06   1.330e-06    -5.764    -5.876    -0.112     (0)  
   AmmH4SulfateO4-   1.452e-06   1.123e-06    -5.838    -5.950    -0.112     (0)  
   HSulfateO4-     4.864e-08   3.762e-08    -7.313    -7.425    -0.112     (0)  
   CaHSulfateO4+   4.822e-09   3.729e-09    -8.317    -8.428    -0.112     (0)  
   FerrousSulfateO4   1.809e-09   1.857e-09    -8.743    -8.731     0.012     (0)  
   FerricSulfateO4+   5.005e-13   3.871e-13   -12.301   -12.412    -0.112     (0)  
   FerrousHSulfateO4+   1.702e-14   1.316e-14   -13.769   -13.881    -0.112     (0)  
   Ferric(SulfateO4)2-   3.930e-15   3.040e-15   -14.406   -14.517    -0.112     (0)  
   FerricHSulfateO4+2   3.123e-18   1.117e-18   -17.505   -17.952    -0.446     (0)  
Sulfide       2.423e-04
   H2Sulfide       2.116e-04   2.172e-04    -3.675    -3.663     0.012     (0)  
   HSulfide-       3.070e-05   2.305e-05    -4.513    -4.637    -0.124     (0)  
   Ferrous(HSulfide)2   1.341e-08   1.377e-08    -7.872    -7.861     0.012     (0)  
   Ferrous(HSulfide)3-   4.470e-11   3.457e-11   -10.350   -10.461    -0.112     (0)  
   Sulfide-2       7.186e-12   2.582e-12   -11.144   -11.588    -0.444     (0)  
Threonine     8.883e-06
   Threonine-2     8.878e-06   3.176e-06    -5.052    -5.498    -0.446     (0)  
   H2(Threonine)   4.739e-09   4.866e-09    -8.324    -8.313     0.012     (0)  
   H(Threonine)-   6.254e-10   4.837e-10    -9.204    -9.315    -0.112     (0)  
Tyrosine      8.883e-06
   Tyrosine-2      8.878e-06   3.176e-06    -5.052    -5.498    -0.446     (0)  
   H2(Tyrosine)    4.631e-09   4.756e-09    -8.334    -8.323     0.012     (0)  
   H(Tyrosine)-    7.017e-10   5.427e-10    -9.154    -9.265    -0.112     (0)  

------------------------------Saturation indices-------------------------------

  Phase               SI** log IAP   log K(298 K,   0 atm)

  FixpH            -5.97     -5.97    0.00  H+
  H2(g)             1.67     -1.48   -3.15  H2
  H2O(g)           -1.51     -0.00    1.51  H2O
  Halite           -4.80     -3.22    1.58  NaCl
  Hydroxyapatite    0.00     -3.42   -3.42  Ca5(PO4)3OH
  ORM             805.08    -74.15 -879.23  C5H4O2Amm
  redoxAnhydrite   -1.17     -5.53   -4.36  CaSulfateO4
  redoxAragonite   -0.41     -8.75   -8.34  CaCO3
  redoxCalcite     -0.27     -8.75   -8.48  CaCO3
  redoxCH4(g)      -3.40     -6.26   -2.86  MethaneH4
  redoxCO2(g)      -0.45     -1.91   -1.47  CO2
  redoxDolomite    -0.73    -17.82  -17.09  CaMg(CO3)2
  redoxFe(OH)3(a)   0.00      4.89    4.89  Ferric(OH)3
  redoxFeS(ppt)    -2.29     -6.21   -3.92  FerrousSulfide
  redoxGoethite     5.89      4.89   -1.00  FerricOOH
  redoxGypsum      -0.95     -5.53   -4.58  CaSulfateO4:2H2O
  redoxH2S(g)      -2.67     -3.66   -1.00  H2Sulfide
  redoxHematite    13.79      9.79   -4.01  Ferric2O3
  redoxJarosite-K  -4.18    -13.39   -9.21  KFerric3(SulfateO4)2(OH)6
  redoxMackinawite  -1.56     -6.21   -4.65  FerrousSulfide
  redoxMelanterite  -8.78    -10.99   -2.21  FerrousSulfateO4:7H2O
  redoxNH3(g)      -8.66     -6.89    1.77  AmmH3
  redoxO2(g)       -1.20     -4.09   -2.89  Ozero2
  redoxPyrite       0.00    -18.48  -18.48  FerrousSulfide2
  redoxSiderite    -3.31    -14.20  -10.89  FerrousCO3
  redoxSulfur     -10.21     -5.33    4.88  Sulfide
  redoxVivianite  -10.62    -46.62  -36.00  Ferrous3(PO4)2:8H2O

**For a gas, SI = log10(fugacity). Fugacity = pressure * phi / 1 atm.
  For ideal gases, phi = 1.

------------------
End of simulation.
------------------

------------------------------------
Reading input data for simulation 4.
------------------------------------

--------------------------------
End of Run after 45.714 Seconds.
--------------------------------

