   Input file: fixp_redox_sw3.phrq
  Output file: fixp_redox_sw3.phrq.out
Database file: ../database/redox.dat

------------------
Reading data base.
------------------

	SOLUTION_MASTER_SPECIES
	SOLUTION_SPECIES
	PHASES
	EXCHANGE_MASTER_SPECIES
	EXCHANGE_SPECIES
	SURFACE_MASTER_SPECIES
	SURFACE_SPECIES
	RATES
	END
------------------------------------
Reading input data for simulation 1.
------------------------------------

	DATABASE ../database/redox.dat
	TITLE  MEND and redox coupling
	CALCULATE_VALUES
	SC_T25
	 start
	 10 sc25 = SC/(1+0.021*(temperature-25))   #in us/cm
	 20 SAVE sc25
	 end
	fsl1    ##more sensitive (green)
	 start
	 10 fsl1 = 1 / (1.0 + exp(1.68 * (log10(CALC_VALUE("SC_T25")/1000)+0.26))) #log(ds/m)
	 40 SAVE fsl1
	 end
	fsl2     ##medium (purple)
	 start
	 10 fsl2 = 1 / (1.0 + exp(2.28 * (log10(CALC_VALUE("SC_T25")/1000)-0.60)))  #log(ds/m)
	 40 SAVE fsl2
	 end
	fsl3     ##medium (red)
	 start
	 10 fsl3 = 1 / (1.0 + exp(2.23 * (log10(CALC_VALUE("SC_T25")/1000)-1.11)))  #log(ds/m)
	 40 SAVE fsl3
	 end
	fsl4    ##more resistant (black)
	 start
	 10 fsl4 = 1 / (1.0 + exp(4.03 * (log10(CALC_VALUE("SC_T25")/1000)-1.78)))  #log(ds/m)
	 40 SAVE fsl4
	 end
	SOLUTION 1    
	units umol/L        #3.774L total volume  ##based on clay fresh system
	pH    7  charge
	temperature 	 25
	water         1.887   #default is 1 kg
	P           5
	Amm         38
	Na          114
	Ca          183
	Cl          133 
	Sulfate     4 
	K           28
	Mg          79
	C(4)        9  
	Nitrate        0
	Ferric       50
	Alanine      52
	Cysteine     52
	Glycine      52
	Glutamine    52
	Threonine    52
	Tyrosine     52
	Ozero        600    redoxO2(g) -0.7
	Methane      1
	Sulfide      0.1
	  SAVE SOLUTION 1
	END
-----
TITLE
-----

  MEND and redox coupling

-------------------------------------------
Beginning of initial solution calculations.
-------------------------------------------

Initial solution 1.	

-----------------------------Solution composition------------------------------

	Elements           Molality       Moles

	Alanine           5.200e-05   9.813e-05
	Amm               3.800e-05   7.171e-05
	C(4)              9.001e-06   1.698e-05
	Ca                1.830e-04   3.453e-04
	Cl                1.330e-04   2.510e-04
	Cysteine          5.200e-05   9.813e-05
	Ferric            5.000e-05   9.436e-05
	Glutamine         5.200e-05   9.813e-05
	Glycine           5.200e-05   9.813e-05
	K                 2.800e-05   5.284e-05
	Methane           1.000e-06   1.887e-06
	Mg                7.901e-05   1.491e-04
	Na                1.140e-04   2.151e-04
	Ozero             5.111e-04   9.645e-04  Equilibrium with redoxO2(g)
	P                 5.000e-06   9.436e-06
	Sulfate           4.000e-06   7.549e-06
	Sulfide           1.000e-07   1.887e-07
	Threonine         5.200e-05   9.813e-05
	Tyrosine          5.200e-05   9.813e-05

----------------------------Description of solution----------------------------

                                       pH  =   6.951      Charge balance
                                       pe  =   4.000    
      Specific Conductance (µS/cm,  25°C)  = 49
                        Activity of water  =   1.000
                 Ionic strength (mol/kgw)  =   1.254e-03
                       Mass of water (kg)  =   1.887e+00
                 Total alkalinity (eq/kg)  =   3.480e-04
                       Total CO2 (mol/kg)  =   9.001e-06
                         Temperature (°C)  =  25.00
                  Electrical balance (eq)  =   1.862e-17
 Percent error, 100*(Cat-|An|)/(Cat+|An|)  =   0.00
                               Iterations  =   8
                                  Total H  = 2.094810e+02
                                  Total O  = 1.047406e+02

----------------------------Distribution of species----------------------------

                                               Log       Log       Log    mole V
   Species          Molality    Activity  Molality  Activity     Gamma   cm³/mol

   H+              1.163e-07   1.120e-07    -6.935    -6.951    -0.016      0.00
   OH-             9.305e-08   8.941e-08    -7.031    -7.049    -0.017     (0)  
   H2O             5.551e+01   1.000e+00     1.744    -0.000     0.000     18.07
Alanine       5.200e-05
   Alanine-2       5.200e-05   4.436e-05    -4.284    -4.353    -0.069     (0)  
   H2(Alanine)     4.121e-09   4.123e-09    -8.385    -8.385     0.000     (0)  
   H(Alanine)-     1.157e-09   1.112e-09    -8.937    -8.954    -0.017     (0)  
Amm           3.800e-05
   AmmH4+          3.782e-05   3.632e-05    -4.422    -4.440    -0.018     (0)  
   AmmH3           1.848e-07   1.848e-07    -6.733    -6.733     0.000     (0)  
   AmmH4SulfateO4-   1.598e-09   1.536e-09    -8.796    -8.814    -0.017     (0)  
C(4)          9.001e-06
   HCO3-           7.227e-06   6.949e-06    -5.141    -5.158    -0.017     (0)  
   CO2             1.749e-06   1.750e-06    -5.757    -5.757     0.000     (0)  
   CaHCO3+         1.441e-08   1.385e-08    -7.841    -7.858    -0.017     (0)  
   MgHCO3+         5.710e-09   5.487e-09    -8.243    -8.261    -0.017     (0)  
   CO3-2           3.404e-09   2.911e-09    -8.468    -8.536    -0.068     (0)  
   CaCO3           7.637e-10   7.639e-10    -9.117    -9.117     0.000     (0)  
   NaHCO3          4.281e-10   4.283e-10    -9.368    -9.368     0.000     (0)  
   MgCO3           1.874e-10   1.874e-10    -9.727    -9.727     0.000     (0)  
   NaCO3-          6.180e-12   5.940e-12   -11.209   -11.226    -0.017     (0)  
Ca            1.830e-04
   Ca+2            1.827e-04   1.562e-04    -3.738    -3.806    -0.068     (0)  
   CaHPO4          1.339e-07   1.339e-07    -6.873    -6.873     0.000     (0)  
   CaSulfateO4     1.023e-07   1.023e-07    -6.990    -6.990     0.000     (0)  
   CaHCO3+         1.441e-08   1.385e-08    -7.841    -7.858    -0.017     (0)  
   CaH2PO4+        1.173e-08   1.127e-08    -7.931    -7.948    -0.017     (0)  
   CaPO4-          2.944e-09   2.829e-09    -8.531    -8.548    -0.017     (0)  
   CaCO3           7.637e-10   7.639e-10    -9.117    -9.117     0.000     (0)  
   CaOH+           2.410e-10   2.316e-10    -9.618    -9.635    -0.017     (0)  
   CaHSulfateO4+   6.984e-14   6.712e-14   -13.156   -13.173    -0.017     (0)  
Cl            1.330e-04
   Cl-             1.330e-04   1.278e-04    -3.876    -3.893    -0.017     (0)  
   FerricCl+2      6.028e-16   5.142e-16   -15.220   -15.289    -0.069     (0)  
   FerricCl2+      3.055e-19   2.936e-19   -18.515   -18.532    -0.017     (0)  
   FerricCl3       3.751e-24   3.752e-24   -23.426   -23.426     0.000     (0)  
Cysteine      5.200e-05
   Cysteine-2      5.197e-05   4.433e-05    -4.284    -4.353    -0.069     (0)  
   H2(Cysteine)    3.348e-08   3.349e-08    -7.475    -7.475     0.000     (0)  
   H(Cysteine)-    2.649e-10   2.546e-10    -9.577    -9.594    -0.017     (0)  
Ferric        5.000e-05
   Ferric(OH)3     2.613e-05   2.614e-05    -4.583    -4.583     0.000     (0)  
   Ferric(OH)2+    2.364e-05   2.272e-05    -4.626    -4.644    -0.017     (0)  
   Ferric(OH)4-    2.215e-07   2.129e-07    -6.655    -6.672    -0.017     (0)  
   FerricOH+2      9.006e-09   7.683e-09    -8.045    -8.114    -0.069     (0)  
   Ferric+3        1.870e-13   1.332e-13   -12.728   -12.875    -0.147     (0)  
   FerricH2PO4+2   1.185e-13   1.011e-13   -12.926   -12.995    -0.069     (0)  
   FerricHPO4+     5.833e-14   5.605e-14   -13.234   -13.251    -0.017     (0)  
   FerricSulfateO4+   4.990e-15   4.795e-15   -14.302   -14.319    -0.017     (0)  
   Ferric2(OH)2+4   3.000e-15   1.589e-15   -14.523   -14.799    -0.276     (0)  
   FerricCl+2      6.028e-16   5.142e-16   -15.220   -15.289    -0.069     (0)  
   Ferric3(OH)4+5   2.036e-17   7.541e-18   -16.691   -17.123    -0.431     (0)  
   Ferric(SulfateO4)2-   3.583e-19   3.444e-19   -18.446   -18.463    -0.017     (0)  
   FerricCl2+      3.055e-19   2.936e-19   -18.515   -18.532    -0.017     (0)  
   FerricHSulfateO4+2   1.685e-21   1.438e-21   -20.773   -20.842    -0.069     (0)  
   FerricCl3       3.751e-24   3.752e-24   -23.426   -23.426     0.000     (0)  
Glutamine     5.200e-05
   Glutamine-2     5.200e-05   4.436e-05    -4.284    -4.353    -0.069     (0)  
   H(Glutamine)-   7.645e-10   7.347e-10    -9.117    -9.134    -0.017     (0)  
   H2(Glutamine)   7.500e-10   7.502e-10    -9.125    -9.125     0.000     (0)  
Glycine       5.200e-05
   Glycine-        5.200e-05   4.997e-05    -4.284    -4.301    -0.017     (0)  
   H2(Glycine)+    2.595e-09   2.494e-09    -8.586    -8.603    -0.017     (0)  
   H(Glycine)      1.224e-09   1.224e-09    -8.912    -8.912     0.000     (0)  
H(0)          1.775e-25
   H2              8.873e-26   8.875e-26   -25.052   -25.052     0.000     (0)  
K             2.800e-05
   K+              2.800e-05   2.691e-05    -4.553    -4.570    -0.017     (0)  
   KSulfateO4-     6.457e-10   6.206e-10    -9.190    -9.207    -0.017     (0)  
   KHPO4-          8.533e-11   8.200e-11   -10.069   -10.086    -0.017     (0)  
   KOH             8.329e-13   8.332e-13   -12.079   -12.079     0.000     (0)  
Methane       1.000e-06
   MethaneH4       1.000e-06   1.000e-06    -6.000    -6.000     0.000     (0)  
Mg            7.901e-05
   Mg+2            7.886e-05   6.748e-05    -4.103    -4.171    -0.068     (0)  
   MgHPO4          7.818e-08   7.820e-08    -7.107    -7.107     0.000     (0)  
   MgSulfateO4     5.192e-08   5.193e-08    -7.285    -7.285     0.000     (0)  
   MgH2PO4+        6.450e-09   6.199e-09    -8.190    -8.208    -0.017     (0)  
   MgHCO3+         5.710e-09   5.487e-09    -8.243    -8.261    -0.017     (0)  
   MgOH+           2.277e-09   2.188e-09    -8.643    -8.660    -0.017     (0)  
   MgPO4-          1.715e-09   1.649e-09    -8.766    -8.783    -0.017     (0)  
   MgCO3           1.874e-10   1.874e-10    -9.727    -9.727     0.000     (0)  
Na            1.140e-04
   Na+             1.140e-04   1.096e-04    -3.943    -3.960    -0.017     (0)  
   NaSulfateO4-    1.876e-09   1.803e-09    -8.727    -8.744    -0.017     (0)  
   NaHCO3          4.281e-10   4.283e-10    -9.368    -9.368     0.000     (0)  
   NaHPO4-         3.475e-10   3.340e-10    -9.459    -9.476    -0.017     (0)  
   NaOH            6.464e-12   6.466e-12   -11.189   -11.189     0.000     (0)  
   NaCO3-          6.180e-12   5.940e-12   -11.209   -11.226    -0.017     (0)  
O(0)          0.000e+00
   O2              0.000e+00   0.000e+00   -42.277   -42.276     0.000     (0)  
Ozero         5.111e-04
   Ozero2          2.556e-04   2.556e-04    -3.592    -3.592     0.000     (0)  
P             5.000e-06
   H2PO4-          2.933e-06   2.819e-06    -5.533    -5.550    -0.017     (0)  
   HPO4-2          1.832e-06   1.563e-06    -5.737    -5.806    -0.069     (0)  
   CaHPO4          1.339e-07   1.339e-07    -6.873    -6.873     0.000     (0)  
   MgHPO4          7.818e-08   7.820e-08    -7.107    -7.107     0.000     (0)  
   CaH2PO4+        1.173e-08   1.127e-08    -7.931    -7.948    -0.017     (0)  
   MgH2PO4+        6.450e-09   6.199e-09    -8.190    -8.208    -0.017     (0)  
   CaPO4-          2.944e-09   2.829e-09    -8.531    -8.548    -0.017     (0)  
   MgPO4-          1.715e-09   1.649e-09    -8.766    -8.783    -0.017     (0)  
   NaHPO4-         3.475e-10   3.340e-10    -9.459    -9.476    -0.017     (0)  
   KHPO4-          8.533e-11   8.200e-11   -10.069   -10.086    -0.017     (0)  
   PO4-3           9.000e-12   6.294e-12   -11.046   -11.201    -0.155     (0)  
   FerricH2PO4+2   1.185e-13   1.011e-13   -12.926   -12.995    -0.069     (0)  
   FerricHPO4+     5.833e-14   5.605e-14   -13.234   -13.251    -0.017     (0)  
Sulfate       4.000e-06
   SulfateO4-2     3.842e-06   3.283e-06    -5.415    -5.484    -0.068     (0)  
   CaSulfateO4     1.023e-07   1.023e-07    -6.990    -6.990     0.000     (0)  
   MgSulfateO4     5.192e-08   5.193e-08    -7.285    -7.285     0.000     (0)  
   NaSulfateO4-    1.876e-09   1.803e-09    -8.727    -8.744    -0.017     (0)  
   AmmH4SulfateO4-   1.598e-09   1.536e-09    -8.796    -8.814    -0.017     (0)  
   KSulfateO4-     6.457e-10   6.206e-10    -9.190    -9.207    -0.017     (0)  
   HSulfateO4-     3.718e-11   3.573e-11   -10.430   -10.447    -0.017     (0)  
   CaHSulfateO4+   6.984e-14   6.712e-14   -13.156   -13.173    -0.017     (0)  
   FerricSulfateO4+   4.990e-15   4.795e-15   -14.302   -14.319    -0.017     (0)  
   Ferric(SulfateO4)2-   3.583e-19   3.444e-19   -18.446   -18.463    -0.017     (0)  
   FerricHSulfateO4+2   1.685e-21   1.438e-21   -20.773   -20.842    -0.069     (0)  
Sulfide       1.000e-07
   HSulfide-       5.154e-08   4.952e-08    -7.288    -7.305    -0.017     (0)  
   H2Sulfide       4.847e-08   4.848e-08    -7.315    -7.314     0.000     (0)  
   Sulfide-2       6.251e-14   5.342e-14   -13.204   -13.272    -0.068     (0)  
Threonine     5.200e-05
   Threonine-2     5.200e-05   4.436e-05    -4.284    -4.353    -0.069     (0)  
   H2(Threonine)   7.330e-10   7.332e-10    -9.135    -9.135     0.000     (0)  
   H(Threonine)-   7.301e-10   7.016e-10    -9.137    -9.154    -0.017     (0)  
Tyrosine      5.200e-05
   Tyrosine-2      5.200e-05   4.436e-05    -4.284    -4.353    -0.069     (0)  
   H(Tyrosine)-    8.191e-10   7.872e-10    -9.087    -9.104    -0.017     (0)  
   H2(Tyrosine)    7.163e-10   7.165e-10    -9.145    -9.145     0.000     (0)  

------------------------------Saturation indices-------------------------------

  Phase               SI** log IAP   log K(298 K,   1 atm)

  FixpH            -6.95     -6.95    0.00  H+
  H2(g)           -21.90    -25.05   -3.15  H2
  H2O(g)           -1.51     -0.00    1.51  H2O
  Halite           -9.44     -7.85    1.58  NaCl
  Hydroxyapatite   -5.22     -8.65   -3.42  Ca5(PO4)3OH
  ORM             829.47    -49.76 -879.23  C5H4O2Amm
  redoxAnhydrite   -4.93     -9.29   -4.36  CaSulfateO4
  redoxAragonite   -4.01    -12.34   -8.34  CaCO3
  redoxCalcite     -3.86    -12.34   -8.48  CaCO3
  redoxCH4(g)      -3.14     -6.00   -2.86  MethaneH4
  redoxCO2(g)      -4.29     -5.76   -1.47  CO2
  redoxDolomite    -7.96    -25.05  -17.09  CaMg(CO3)2
  redoxFe(OH)3(a)   3.09      7.98    4.89  Ferric(OH)3
  redoxGoethite     8.98      7.98   -1.00  FerricOOH
  redoxGypsum      -4.71     -9.29   -4.58  CaSulfateO4:2H2O
  redoxH2S(g)      -6.32     -7.31   -1.00  H2Sulfide
  redoxHematite    19.96     15.95   -4.01  Ferric2O3
  redoxJarosite-K  -3.25    -12.46   -9.21  KFerric3(SulfateO4)2(OH)6
  redoxNH3(g)      -8.50     -6.73    1.77  AmmH3
  redoxO2(g)       -0.70     -3.59   -2.89  Ozero2
  redoxSulfur       9.71     14.59    4.88  Sulfide

**For a gas, SI = log10(fugacity). Fugacity = pressure * phi / 1 atm.
  For ideal gases, phi = 1.

------------------
End of simulation.
------------------

------------------------------------
Reading input data for simulation 2.
------------------------------------

	GAS_PHASE 1 fixed volume gas phase
	  fixed_volume
	  volume	   0.9  #(L)  calculate air pore space
	  temperature 	 25.0
	  redoxO2(g)   0.29
	  redoxCH4(g)  0.0
	  redoxCO2(g)  0.000316
	  SAVE GAS_PHASE 1
	END
------------------
End of simulation.
------------------

------------------------------------
Reading input data for simulation 3.
------------------------------------

	USE SOLUTION 1
	USE GAS_PHASE 1
	EXCHANGE_SPECIES
	 X- = X-
	 log_k 0     #semicolon is logical end of line
	 X- + AmmH4+ = AmmH4X
	  log_k  0.25   #define the half-reactions of ion change
	 2X- + Ca+2  = CaX2
	    log_k  0.4    $logK's relative 
	 2X- + Mg+2  = MgX2
	    log_k  0.5
	 X- + Na+  = NaX
	      log_k  0.0
	 X- + K+  = KX
	       log_k  0.2
	EXCHANGE 1   #exchanger in equilibirium 
	  X         16  #exchanger amount in mol
	  equilibrate with solution 1
	  exchange_gammas   true
	EQUILIBRIUM_PHASES 1
	  redoxO2(g)       -1.2  1     #fixed partial pressure approach
	  redoxCalcite      0  0.001     #CaCo3
	  redoxFeS(ppt)     0  0.001     #FeS
	  Hydroxyapatite    0  0.001     #Ca5(PO4)3OH
	  redoxPyrite       0  0.001     #FeS2
	  redoxFe(OH)3(a)   0  2   
	SURFACE 1
	 Hfo_wOH 2e-4  600  280  #site density (per nm2), SSA (m2/g), gram
	 Hfo_sOH 5e-6
	donnan 1e-8   #defuse layer thickness
	  H_a   3.837E-02  3.417E+04     80  ##gram of SOM for exchange
	  H_b   3.837E-02
	 H_c   3.837E-02
	 H_d  3.837E-02
	  H_e   1.919E-02
	 H_f   1.919E-02
	 H_g  1.919E-02
	 H_h  1.919E-02
	  H_ab  6.378E-02
	 H_ad  6.378E-02
	 H_af  6.378E-02
	 H_ah  6.378E-02
	  H_bc  6.378E-02
	 H_be  6.378E-02
	 H_bg  6.378E-05
	 H_cd  6.378E-05
	  H_cf  6.378E-02
	 H_ch  6.378E-02
	 H_de  6.378E-05
	 H_dg  6.378E-05
	 equilibrate with solution 1
	USE SOLUTION 1
	KINETICS  Decomposition  ##in mgC per g soil, redox reaction stoichiometry based on per biomassC
	cvode
	BA
	   m0   0.52
	   formula CH2O 0.0  
	   parms 1.04 0.25 0.001 0.4 0.02  #parm(1)=Vd, parm(2)=Kd, parm(3)=PEP, parm(4)=CUE, parm(5)=kb
	OAC
	   m0  0.001
	   formula CH2O 0.0   
	   parms  0.2  0.25
	Aero
	   formula CH2O 0.0   Ozero2  1.44   HCO3 -1.44  #C 2.44
	   parms  4   0.5  0.05   #Vmax, Koc, Ko2
	SulR
	   formula CH2O 0.0   SulfateO4-2  4.5   HSulfide-  -4.5  HCO3 -9    #C 10
	   parms  0.5   0.1   4   #Vmax, Koc, Kso4
	Meth
	   formula CH2O 0.0     MethaneH4 -20.24  HCO3 20.24   #C 41.48
	   parms  0.25   0.6  0.1   #Vmax, Koc, KI_O2
	POM
	   m0   4.71
	   formula CH2O 0.0  
	   parms 33.8  50  0  0.5   #vp1, kp1, Ip1, gD-fraction of dead BA to D
	MOM
	   m0   15.9
	   formula CH2O 0.0
	   parms 0.2  250 0.5   #vm, km, fD- fraction of decomposed p1/p2 to D
	DOM
	   m0   0.48
	   formula CH2O 0.0
	   parms  0.5  0.25  0
	QOM
	   m0   1.767
	   formula CH2O 0.0
	   parms 0.006 0.5  0.001   #adsorption constant, Qmax, desorption constant
	EP
	   m0   0.052
	   formula CH2O 0.0
	   parms  0.001
	EM
	   m0   0.052
	   formula CH2O 0.0
	   parms  0.001
	respiration
	   m0   0
	   formula CH2O 0.0 
	   parms  0.4
	Tot
	   m0   23.484
	   formula CH2O 0.0
	Salt  ##saltwater ion stoichiometry
	   m0   0.001
	   formula  CH2O 0.0   Cl-  -24  Sulfate  -3   Na+  -25   K+  -1    Ca+2  -2  Mg+2  -4   HCO3  -3  Nitrate -5 
	   parms 0.01  ## mol per gram soil per day
	Caero
	   m0   0
	   formula CH2O 0.0
	Csulr
	   m0   0
	   formula CH2O 0.0
	Cmeth
	   m0   0
	   formula CH2O 0.0
	   steps 100 in 100 steps #day
	  INCREMENTAL_REACTIONS true
	RATES
	BA
	   start
	    10 mDOM= kin("DOM")*0.8
	    20 bio = kin("BA")
	    30 uptake= parm(1)* bio * mDOM/(parm(2)+mDOM)   #parm(1)=Vd, parm(2)=Kd
	    40 put(uptake, 1) #microbil uptake flux                                      
	    50 decay=(1-parm(3)*2)*bio*parm(5)     #parm(3)=pEP=pEM (exoemzyme production rate); 0.1*Vd=biomass decay rate
	    60 put(decay, 2)                                           ##maintenance respiration
	    70 pexo = parm(3)*bio   #exoenzyme production enzyme production rate=0.1*Vd
	    80 put(pexo, 3)                                             ##mortality
	    90 rate = get(1)*parm(4)-get(2)-get(3)-get(3)+get(11)*get(11)/(get(11)+get(12)+get(13))+get(12)*get(12)/(get(11)+get(12)+get(13))+get(13)*get(13)/(get(11)+get(12)+get(13)) #parm(4)=CUE
	    100 save -rate * time 
	   end
	OAC
	   start
	    10 mDOM= kin("DOM")
	    20 rate = parm(1)* mDOM+parm(2)* get(2)-get(11)*2.44*get(11)/(get(11)+get(12)+get(13))-get(12)*10*get(12)/(get(11)+get(12)+get(13))-get(13)*41.48*get(13)/(get(11)+get(12)+get(13))  #C stoichiometry for redox reactions
	    30 put(rate, 14)
	    100 save -rate * time 
	   end
	Aero
	  start
	   10 mDOM= kin("OAC")/12
	   20 bio = kin("BA")/12
	   30 DO= mol("Ozero2")*1000
	   40 donor = mDOM/(parm(2)+mDOM)
	   50 accp = DO/(parm(3)+DO)
	   60 rate = parm(1)* bio * donor * accp
	   70 put(rate, 11)
	   80 final = rate*get(11)/(get(11)+get(12)+get(13))
	  100 save -final* time
	  end
	SulR
	  start
	   10 mDOM= kin("OAC")/12
	   20 bio = 0.6*kin("BA")/12
	   30 DO = mol("Ozero2")*1000
	   40 SO = mol("SulfateO4-2")*1000
	   50 donor = mDOM/(parm(2)+mDOM)
	   60 acc = SO/(parm(3)+SO)
	   70 rate = parm(1)* bio * donor * acc
	   80 put(rate, 12)
	   90 final = rate*get (12)/(get(11)+get(12)+get(13))
	  100 save -final * time
	  end
	Meth
	  start
	   10 mDOM= kin("OAC")/12
	   11 if(kin("OAC")<= 0.15) then mDOM=0
	   20 bio = 0.2*kin("BA")/12
	   30 DO = mol("Ozero2")*1000
	   50 donor = mDOM/(parm(2)+mDOM)
	   60 inhib = parm(3)/(DO+parm(3))
	   70 rate =  parm(1)* bio * donor 
	   80 put(rate, 13)
	   90 final = rate*get (13)/(get(11)+get(12)+get(13))
	  100 save -final * time
	  end
	POM
	   start
	    10 mPOM = kin("POM")
	    20 ep = kin("EP")
	    30 deco = parm(1) * ep * mPOM/(parm(2)+mPOM) # parm(1)=Vp, parm(2)=Kp
	    40 put (deco, 4)  #POM decomposition
	    50 rate = (1-parm(4))*get(2)-get(4)  #parm(3)=input, parm(4)=gD, fraction of decayed biomass C going to DOM pool
	    100 save -rate * time
	   end
	MOM
	   start
	    10 mMOM = kin("MOM")
	    20 em = kin("EM")
	    30 flux = parm(1) * em * mMOM /(parm(2)+ mMOM) # parm(1)=VM, parm(2)=KM
	    40 put(flux,5)  #MOM decomposition flux
	    50 rate = (1-parm(3))*get(4)-get(5)  #parm(3)=fD_fraction of decomposed P to D
	    100 save -rate*time
	   end
	DOM
	   start
	    10 rate = (1-parm(1))*get(4)+parm(2)* get(2)+get(5)+(get(8)+get(9))-get(1)-(get(6)-get(7))-get(14)
	    100 save -rate* time
	   end
	QOM
	   start
	    10 mQOM = kin("QOM")
	    20 D = kin("DOM")
	    30 flux1 = parm(1) * (1-mQOM/parm(2))* D #adsorption flux, parm(1)=adsorption constant, parm(2)=Qmax
	    40 put(flux1,6)  #adsorption flux
	    50 flux2 = parm(3) * (mQOM/parm(2)) #parm(3)=desorption constant, parm(2)=Qmax
	    60 put(flux2,7)  #desorption flux
	    70 rate = get(6)-get(7)
	    100 save -rate * time
	   end
	EP
	   start
	    10 ep = kin("EP")
	    20 flux1 = parm(1)*ep #enzyme decay
	    30 put (flux1,8)
	    40 rate = get(3)-get(8)
	    100 save -rate * time
	   end
	EM
	   start
	    10 em = kin("EM")
	    20 flux1= parm(1)* em
	    30 put (flux1,9)
	    40 rate = get(3)-get(9)
	    100  save -rate * time
	   end
	respiration
	   start
	    10 rate = (1- parm(1))*get(1)+(get(11)*1.44*get(11)/(get(11)+get(12)+get(13))+get(12)*9*get(12)/(get(11)+get(12)+get(13))-get(13)*20.24*get(13)/(get(11)+get(12)+get(13)))*12 #parm(1)=CUE
	    20 put (rate, 10)
	    30 save -rate * time
	   end
	Tot
	   start
	    10 rate = -get(10)-(GAS('redoxCH4(g)')+tot('CH4'))*12
	    20 save -rate * time
	   end
	Salt
	   start
	    10 salt=kin("salt")
	    20 rate = parm(1)*(0.10-salt)   ## The incoming concentration is important
	    30 save -rate * time
	   end
	Caero
	   start
	    10 rate = get(11)*2.44*get (11)/(get(11)+get(12)+get(13))
	    30 save -rate * time
	   end
	Csulr
	   start
	    10 rate = get(12)*10*get (12)/(get(11)+get(12)+get(13))
	    30 save -rate * time
	   end
	Cmeth
	   start
	    10 rate = get(13)*41.48*get (13)/(get(11)+get(12)+get(13))
	    30 save -rate * time
	   end
	SELECTED_OUTPUT
	  reset false
	   pe true
	  file fixp_redox_sw3.txt
	USER_PUNCH
	  start
	  heading Time pH  Ozero HS CH4 CO2g CO2 SC  fsl1  fsl2  fsl3  fsl4 POM MOM QOM DOM BA EP EM IC Total OrgAcid Aero SulR Meth Caero Csulr Cmeth Na  K  Ca  Mg  PO4  Cl  SO4 NH4 HCO3 FeS Pyrite 
	  10 PUNCH SIM_TIME
	  20 PUNCH -la("H+")
	  30 PUNCH mol("Ozero2")  tot('Sulfide')
	  40 PUNCH GAS('redoxCH4(g)')+tot('CH4')  GAS('redoxCO2(g)')  tot('C(4)')
	  50 PUNCH CALC_VALUE ("SC_T25")
	  60 PUNCH CALC_VALUE("fsl1")  CALC_VALUE("fsl2")  CALC_VALUE("fsl3")  CALC_VALUE("fsl4")
	  70 PUNCH kin('POM') kin('MOM') kin('QOM') kin('DOM') kin('BA') kin('EP') kin('EM') 
	  80 PUNCH kin('respiration') kin("Tot") kin('OAC') kin('Aero')  kin('SulR')  kin('Meth')
	  90 PUNCH kin('Caero') kin('Csulr') kin('Cmeth')
	  100 PUNCH tot("Na")  tot("K")  mol("Ca+2")  tot("Mg") tot("P")  tot("Cl")  tot("Sulfate") tot ("Amm")  tot("C(4)")
	  110 PUNCH equi("redoxFeS(ppt)")  equi("redoxPyrite")
	  end
	END
-------------------------------------------------------
Beginning of initial exchange-composition calculations.
-------------------------------------------------------

Exchange 1.	

X                1.600e+01 mol

	                               Equiv-    Equivalent      Log 
	Species             Moles      alents      Fraction     Gamma

	CaX2              5.136e+00   1.027e+01   6.421e-01     0.000
	MgX2              2.793e+00   5.586e+00   3.491e-01     0.000
	NaX               7.092e-02   7.092e-02   4.433e-03     0.000
	AmmH4X            4.180e-02   4.180e-02   2.612e-03     0.000
	KX                2.760e-02   2.760e-02   1.725e-03     0.000
	HX                7.524e-04   7.524e-04   4.703e-05    -0.016

------------------------------------------------------
Beginning of initial surface-composition calculations.
------------------------------------------------------

Surface 1.	

Diffuse Double Layer Surface-Complexation Model

H             
	  1.144e-09  Surface + diffuse layer charge, eq
	 -5.139e-01  Surface charge, eq
	 -1.814e-02  sigma, C/m²
	 -1.120e-01  psi, V
	  4.360e+00  -F*psi/RT
	  7.824e+01  exp(-F*psi/RT)
	  3.417e+04  specific area, m²/g
	  2.734e+06  m² for   8.000e+01 g

	Water in diffuse layer: 2.734e+01 kg, 94.2% of total DDL-water.

	Total moles in diffuse layer (excluding water), Donnan calculation.
	Donnan Layer potential, psi_DL = -4.521e-02 V.
	Boltzmann factor, exp(-psi_DL * F / RT) = 5.811e+00 (= c_DL / c_free if z is +1).

	Element       	     Moles
	Alanine       	  4.2219e-05
	Amm           	  6.0117e-03
	C             	  8.5044e-05
	Ca            	  1.6867e-01
	Cl            	  6.2575e-04
	Cysteine      	  4.2994e-05
	Ferric        	  4.4787e-03
	Glutamine     	  4.2128e-05
	Glycine       	  2.4508e-04
	H             	  3.3920e-02
	K             	  4.4476e-03
	Methane       	  2.7338e-05
	Mg            	  7.2787e-02
	Na            	  1.8108e-02
	O             	  9.9991e-03
	Ozero         	  1.3973e-02
	P             	  2.3987e-05
	Sulfate       	  7.3458e-06
	Sulfide       	  1.5674e-06
	Threonine     	  4.2127e-05
	Tyrosine      	  4.2127e-05

H_a           
	  3.837e-02  moles
	                                   Mole                     Log
	Species               Moles    Fraction    Molality    Molality

	H_a-              3.718e-02       0.969   1.971e-02      -1.705
	H_aCa+            8.730e-04       0.023   4.626e-04      -3.335
	H_aMg+            2.995e-04       0.008   1.587e-04      -3.799
	H_aH              1.267e-05       0.000   6.716e-06      -5.173

H_ab          
	  6.378e-02  moles
	                                   Mole                     Log
	Species               Moles    Fraction    Molality    Molality

	H_ab-2            6.291e-02       0.986   3.334e-02      -1.477
	H_abCa            4.670e-04       0.007   2.475e-04      -3.606
	H_abH-            2.762e-04       0.004   1.464e-04      -3.835
	H_abMg            1.273e-04       0.002   6.745e-05      -4.171
	H_abH2            9.414e-08       0.000   4.989e-08      -7.302

H_ad          
	  6.378e-02  moles
	                                   Mole                     Log
	Species               Moles    Fraction    Molality    Molality

	H_adCa            2.400e-02       0.376   1.272e-02      -1.896
	H_ad-2            1.904e-02       0.298   1.009e-02      -1.996
	H_adH-            1.419e-02       0.223   7.522e-03      -2.124
	H_adMg            6.541e-03       0.103   3.467e-03      -2.460
	H_adH2            4.838e-06       0.000   2.564e-06      -5.591

H_af          
	  6.378e-02  moles
	                                   Mole                     Log
	Species               Moles    Fraction    Molality    Molality

	H_afH-            5.540e-02       0.869   2.936e-02      -1.532
	H_afCa            8.348e-03       0.131   4.424e-03      -2.354
	H_afH2            1.888e-05       0.000   1.001e-05      -5.000
	H_af-2            1.205e-05       0.000   6.385e-06      -5.195
	H_afMg            3.864e-06       0.000   2.048e-06      -5.689

H_ah          
	  6.378e-02  moles
	                                   Mole                     Log
	Species               Moles    Fraction    Molality    Molality

	H_ahH-            6.374e-02       0.999   3.378e-02      -1.471
	H_ahH2            2.172e-05       0.000   1.151e-05      -4.939
	H_ahCa            1.708e-05       0.000   9.052e-06      -5.043
	H_ahMg            4.446e-06       0.000   2.356e-06      -5.628
	H_ah-2            2.896e-09       0.000   1.535e-09      -8.814

H_b           
	  3.837e-02  moles
	                                   Mole                     Log
	Species               Moles    Fraction    Molality    Molality

	H_b-              2.720e-02       0.709   1.441e-02      -1.841
	H_bCa+            8.227e-03       0.214   4.360e-03      -2.361
	H_bMg+            2.823e-03       0.074   1.496e-03      -2.825
	H_bH              1.194e-04       0.003   6.329e-05      -4.199

H_bc          
	  6.378e-02  moles
	                                   Mole                     Log
	Species               Moles    Fraction    Molality    Molality

	H_bcCa            3.020e-02       0.474   1.601e-02      -1.796
	H_bc-2            2.395e-02       0.376   1.269e-02      -1.896
	H_bcMg            8.231e-03       0.129   4.362e-03      -2.360
	H_bcH-            1.386e-03       0.022   7.348e-04      -3.134
	H_bcH2            6.088e-06       0.000   3.226e-06      -5.491

H_be          
	  6.378e-02  moles
	                                   Mole                     Log
	Species               Moles    Fraction    Molality    Molality

	H_beH-            6.230e-02       0.977   3.301e-02      -1.481
	H_be-2            9.374e-04       0.015   4.968e-04      -3.304
	H_beH2            2.735e-04       0.004   1.450e-04      -3.839
	H_beCa            2.151e-04       0.003   1.140e-04      -3.943
	H_beMg            5.598e-05       0.001   2.966e-05      -4.528

H_bg          
	  6.378e-05  moles
	                                   Mole                     Log
	Species               Moles    Fraction    Molality    Molality

	H_bgH-            6.323e-05       0.991   3.351e-05      -4.475
	H_bgH2            2.776e-07       0.004   1.471e-07      -6.832
	H_bgCa            2.183e-07       0.003   1.157e-07      -6.937
	H_bgMg            5.681e-08       0.001   3.011e-08      -7.521
	H_bg-2            1.988e-10       0.000   1.053e-10      -9.977

H_c           
	  3.837e-02  moles
	                                   Mole                     Log
	Species               Moles    Fraction    Molality    Molality

	H_cCa+            2.386e-02       0.622   1.264e-02      -1.898
	H_cMg+            8.185e-03       0.213   4.337e-03      -2.363
	H_c-              5.983e-03       0.156   3.171e-03      -2.499
	H_cH              3.463e-04       0.009   1.835e-04      -3.736

H_cd          
	  6.378e-05  moles
	                                   Mole                     Log
	Species               Moles    Fraction    Molality    Molality

	H_cdCa            4.979e-05       0.781   2.639e-05      -4.579
	H_cdMg            1.357e-05       0.213   7.192e-06      -5.143
	H_cd-2            2.326e-07       0.004   1.232e-07      -6.909
	H_cdH-            1.734e-07       0.003   9.189e-08      -7.037
	H_cdH2            1.004e-08       0.000   5.319e-09      -8.274

H_cf          
	  6.378e-02  moles
	                                   Mole                     Log
	Species               Moles    Fraction    Molality    Molality

	H_cfH-            5.718e-02       0.896   3.030e-02      -1.519
	H_cfH2            3.309e-03       0.052   1.754e-03      -2.756
	H_cfCa            2.602e-03       0.041   1.379e-03      -2.860
	H_cfMg            6.773e-04       0.011   3.589e-04      -3.445
	H_cf-2            1.244e-05       0.000   6.591e-06      -5.181

H_ch          
	  6.378e-02  moles
	                                   Mole                     Log
	Species               Moles    Fraction    Molality    Molality

	H_chH-            5.719e-02       0.897   3.031e-02      -1.518
	H_chH2            3.310e-03       0.052   1.754e-03      -2.756
	H_chCa            2.603e-03       0.041   1.379e-03      -2.860
	H_chMg            6.774e-04       0.011   3.590e-04      -3.445
	H_ch-2            2.599e-09       0.000   1.377e-09      -8.861

H_d           
	  3.837e-02  moles
	                                   Mole                     Log
	Species               Moles    Fraction    Molality    Molality

	H_dCa+            2.786e-02       0.726   1.477e-02      -1.831
	H_dMg+            9.560e-03       0.249   5.066e-03      -2.295
	H_d-              5.425e-04       0.014   2.875e-04      -3.541
	H_dH              4.045e-04       0.011   2.144e-04      -3.669

H_de          
	  6.378e-05  moles
	                                   Mole                     Log
	Species               Moles    Fraction    Molality    Molality

	H_deH-            2.552e-05       0.400   1.352e-05      -4.869
	H_deH2            1.903e-05       0.298   1.008e-05      -4.996
	H_deCa            1.496e-05       0.235   7.928e-06      -5.101
	H_deMg            3.894e-06       0.061   2.063e-06      -5.685
	H_de-2            3.840e-07       0.006   2.035e-07      -6.691

H_dg          
	  6.378e-05  moles
	                                   Mole                     Log
	Species               Moles    Fraction    Molality    Molality

	H_dgH-            2.567e-05       0.402   1.360e-05      -4.866
	H_dgH2            1.914e-05       0.300   1.014e-05      -4.994
	H_dgCa            1.505e-05       0.236   7.976e-06      -5.098
	H_dgMg            3.917e-06       0.061   2.076e-06      -5.683
	H_dg-2            8.071e-11       0.000   4.277e-11     -10.369

H_e           
	  1.919e-02  moles
	                                   Mole                     Log
	Species               Moles    Fraction    Molality    Molality

	H_eH              1.863e-02       0.971   9.875e-03      -2.005
	H_e-              2.804e-04       0.015   1.486e-04      -3.828
	H_eCa+            2.082e-04       0.011   1.103e-04      -3.957
	H_eMg+            6.666e-05       0.003   3.533e-05      -4.452

H_f           
	  1.919e-02  moles
	                                   Mole                     Log
	Species               Moles    Fraction    Molality    Molality

	H_fH              1.891e-02       0.985   1.002e-02      -1.999
	H_fCa+            2.112e-04       0.011   1.119e-04      -3.951
	H_fMg+            6.763e-05       0.004   3.584e-05      -4.446
	H_f-              4.112e-06       0.000   2.179e-06      -5.662

H_g           
	  1.919e-02  moles
	                                   Mole                     Log
	Species               Moles    Fraction    Molality    Molality

	H_gH              1.891e-02       0.985   1.002e-02      -1.999
	H_gCa+            2.113e-04       0.011   1.120e-04      -3.951
	H_gMg+            6.765e-05       0.004   3.585e-05      -4.446
	H_g-              5.945e-08       0.000   3.151e-08      -7.502

H_h           
	  1.919e-02  moles
	                                   Mole                     Log
	Species               Moles    Fraction    Molality    Molality

	H_hH              1.891e-02       0.985   1.002e-02      -1.999
	H_hCa+            2.113e-04       0.011   1.120e-04      -3.951
	H_hMg+            6.765e-05       0.004   3.585e-05      -4.446
	H_h-              8.594e-10       0.000   4.554e-10      -9.342

Hfo           
	 -9.038e-14  Surface + diffuse layer charge, eq
	 -7.866e-06  Surface charge, eq
	 -4.518e-06  sigma, C/m²
	 -5.587e-05  psi, V
	  2.175e-03  -F*psi/RT
	  1.002e+00  exp(-F*psi/RT)
	  6.000e+02  specific area, m²/g
	  1.680e+05  m² for   2.800e+02 g

	Water in diffuse layer: 1.680e+00 kg,  5.8% of total DDL-water.

	Total moles in diffuse layer (excluding water), Donnan calculation.
	Donnan Layer potential, psi_DL = -4.796e-05 V.
	Boltzmann factor, exp(-psi_DL * F / RT) = 1.002e+00 (= c_DL / c_free if z is +1).

	Element       	     Moles
	Alanine       	  8.7041e-05
	Amm           	  6.3963e-05
	C             	  1.5098e-05
	Ca            	  3.0861e-04
	Cl            	  2.2304e-04
	Cysteine      	  8.7041e-05
	Ferric        	  8.4079e-05
	Glutamine     	  8.7041e-05
	Glycine       	  8.7203e-05
	H             	  5.0128e-04
	K             	  4.7131e-05
	Methane       	  1.6801e-06
	Mg            	  1.3322e-04
	Na            	  1.9189e-04
	O             	  3.1561e-04
	Ozero         	  8.5873e-04
	P             	  8.3800e-06
	Sulfate       	  6.6964e-06
	Sulfide       	  1.6785e-07
	Threonine     	  8.7041e-05
	Tyrosine      	  8.7041e-05

Hfo_s         
	  5.000e-06  moles
	                                   Mole                     Log
	Species               Moles    Fraction    Molality    Molality

	Hfo_sOHCa+2       4.104e-06       0.821   2.175e-06      -5.663
	Hfo_sOH2+         6.131e-07       0.123   3.249e-07      -6.488
	Hfo_sOH           2.802e-07       0.056   1.485e-07      -6.828
	Hfo_sO-           2.934e-09       0.001   1.555e-09      -8.808

Hfo_w         
	  2.000e-04  moles
	                                   Mole                     Log
	Species               Moles    Fraction    Molality    Molality

	Hfo_wOH2+         7.692e-05       0.385   4.076e-05      -4.390
	Hfo_wHPO4-        6.795e-05       0.340   3.601e-05      -4.444
	Hfo_wOH           3.516e-05       0.176   1.863e-05      -4.730
	Hfo_wPO4-2        1.295e-05       0.065   6.861e-06      -5.164
	Hfo_wH2PO4        6.056e-06       0.030   3.209e-06      -5.494
	Hfo_wOMg+         5.334e-07       0.003   2.827e-07      -6.549
	Hfo_wO-           3.681e-07       0.002   1.951e-07      -6.710
	Hfo_wOCa+         6.945e-08       0.000   3.680e-08      -7.434
	Hfo_wSulfateO4-   7.769e-10       0.000   4.117e-10      -9.385
	Hfo_wOHSulfateO4-2   7.085e-10       0.000   3.755e-10      -9.425

-----------------------------------------
Beginning of batch-reaction calculations.
-----------------------------------------

Reaction step 1.

WARNING: Zero divide in BASIC line
 90  rate = get(1)*parm(4)-get(2)-get(3)-get(3)+get(11)*get(11)/(get(11)+get(12)+get(13))+get(12)*get(12)/(get(11)+get(12)+get(13))+get(13)*get(13)/(get(11)+get(12)+get(13)).
Value set to zero.
WARNING: Zero divide in BASIC line
 90  rate = get(1)*parm(4)-get(2)-get(3)-get(3)+get(11)*get(11)/(get(11)+get(12)+get(13))+get(12)*get(12)/(get(11)+get(12)+get(13))+get(13)*get(13)/(get(11)+get(12)+get(13)).
Value set to zero.
WARNING: Zero divide in BASIC line
 90  rate = get(1)*parm(4)-get(2)-get(3)-get(3)+get(11)*get(11)/(get(11)+get(12)+get(13))+get(12)*get(12)/(get(11)+get(12)+get(13))+get(13)*get(13)/(get(11)+get(12)+get(13)).
Value set to zero.
WARNING: Zero divide in BASIC line
 20  rate = parm(1)* mDOM+parm(2)* get(2)-get(11)*2.44*get(11)/(get(11)+get(12)+get(13))-get(12)*10*get(12)/(get(11)+get(12)+get(13))-get(13)*41.48*get(13)/(get(11)+get(12)+get(13)).
Value set to zero.
WARNING: Zero divide in BASIC line
 20  rate = parm(1)* mDOM+parm(2)* get(2)-get(11)*2.44*get(11)/(get(11)+get(12)+get(13))-get(12)*10*get(12)/(get(11)+get(12)+get(13))-get(13)*41.48*get(13)/(get(11)+get(12)+get(13)).
Value set to zero.
WARNING: Zero divide in BASIC line
 20  rate = parm(1)* mDOM+parm(2)* get(2)-get(11)*2.44*get(11)/(get(11)+get(12)+get(13))-get(12)*10*get(12)/(get(11)+get(12)+get(13))-get(13)*41.48*get(13)/(get(11)+get(12)+get(13)).
Value set to zero.
Using solution 1.	
Using exchange 1.	Exchange assemblage after simulation 3.
Using surface 1.	
Using pure phase assemblage 1.	
Using gas phase 1.	fixed volume gas phase
Using kinetics 1.	Decomposition  

Kinetics 1.	Decomposition  

	Time step: 1 seconds  (Incremented time: 1 seconds)

	Rate name       Delta Moles Total Moles   Reactant        Coefficient

	BA                1.084e-01   6.284e-01   CH2O                      0
	OAC               6.681e-02   6.781e-02   CH2O                      0
	Aero              7.736e-04   1.001e+00   CH2O                      0
	                                          HCO3                  -1.44
	                                          Ozero2                 1.44
	SulR              5.146e-07   1.000e+00   CH2O                      0
	                                          HCO3                     -9
	                                          HSulfide-              -4.5
	                                          SulfateO4-2             4.5
	Meth             -0.000e+00   1.000e+00   CH2O                      0
	                                          HCO3                  20.24
	                                          MethaneH4            -20.24
	POM              -1.441e-01   4.566e+00   CH2O                      0
	MOM               7.433e-02   1.597e+01   CH2O                      0
	DOM              -2.806e-01   1.994e-01   CH2O                      0
	QOM              -8.513e-03   1.758e+00   CH2O                      0
	EP                5.245e-04   5.252e-02   CH2O                      0
	EM                5.245e-04   5.252e-02   CH2O                      0
	respiration       1.939e-01   1.939e-01   CH2O                      0
	Tot              -1.941e-01   2.329e+01   CH2O                      0
	Salt              9.851e-04   1.985e-03   CH2O                      0
	                                          Ca+2                     -2
	                                          Cl-                     -24
	                                          HCO3                     -3
	                                          K+                       -1
	                                          Mg+2                     -4
	                                          Na+                     -25
	                                          Nitrate                  -5
	                                          Sulfate                  -3
	Caero             1.888e-03   1.888e-03   CH2O                      0
	Csulr             5.146e-06   5.146e-06   CH2O                      0
	Cmeth            -0.000e+00   0.000e+00   CH2O                      0

-----------------------------------Gas phase-----------------------------------

Total pressure:  0.07      atmospheres 
    Gas volume:   9.00e-01 liters
  Molar volume:   3.72e+02 liters/mole

                                                        Moles in gas
                                            ----------------------------------
Component                log P           P     Initial       Final       Delta

redoxCH4(g)              -3.41   3.893e-04   0.000e+00   1.432e-05   1.432e-05
redoxCO2(g)              -2.63   2.335e-03   1.162e-05   8.589e-05   7.426e-05
redoxO2(g)               -1.20   6.310e-02   1.067e-02   2.321e-03  -8.347e-03

-------------------------------Phase assemblage--------------------------------

                                                      Moles in assemblage
Phase               SI  log IAP  log K(T, P)   Initial       Final       Delta

Hydroxyapatite    0.00    -3.42     -3.42    1.000e-03   5.429e-04  -4.571e-04
redoxCalcite     -2.08   -10.56     -8.48    1.000e-03           0  -1.000e-03
redoxFe(OH)3(a)    0.00     4.89      4.89    2.000e+00   2.005e+00   4.654e-03
redoxFeS(ppt)    -2.23    -6.15     -3.92    1.000e-03           0  -1.000e-03
redoxO2(g)       -1.20    -4.09     -2.89    1.000e+00   1.013e+00   1.264e-02
redoxPyrite       0.00   -18.48    -18.48    1.000e-03   1.407e-03   4.067e-04

------------------------------Surface composition------------------------------

Diffuse Double Layer Surface-Complexation Model

H             
	  2.508e-09  Surface + diffuse layer charge, eq
	 -5.788e-01  Surface charge, eq
	 -2.043e-02  sigma, C/m²
	 -8.334e-02  psi, V
	  3.244e+00  -F*psi/RT
	  2.564e+01  exp(-F*psi/RT)
	  3.417e+04  specific area, m²/g
	  2.734e+06  m² for   8.000e+01 g

	Water in diffuse layer: 2.734e+01 kg, 94.2% of total DDL-water.

	Total moles in diffuse layer (excluding water), Donnan calculation.
	Donnan Layer potential, psi_DL = -2.573e-02 V.
	Boltzmann factor, exp(-psi_DL * F / RT) = 2.722e+00 (= c_DL / c_free if z is +1).

	Element       	     Moles
	Alanine       	  1.1615e-04
	Amm           	  6.2753e-03
	C             	  4.1778e-03
	Ca            	  2.0080e-01
	Cl            	  1.8276e-02
	Cysteine      	  1.1716e-04
	Ferric        	  3.3884e-06
	Ferrous       	  1.5560e-05
	Glutamine     	  1.1603e-04
	Glycine       	  3.1804e-04
	H             	  7.5957e-02
	K             	  4.7733e-03
	Methane       	  1.4671e-05
	Mg            	  8.6472e-02
	Na            	  2.3904e-02
	Nitrate       	  3.6382e-03
	O             	  3.3235e-02
	Ozero         	  4.4146e-03
	P             	  1.0123e-03
	Sulfate       	  1.9750e-03
	Sulfide       	  1.6302e-04
	Threonine     	  1.1603e-04
	Tyrosine      	  1.1603e-04

H_a           
	  3.837e-02  moles
	                                   Mole                     Log
	Species               Moles    Fraction    Molality    Molality

	H_a-              3.776e-02       0.984   2.002e-02      -1.699
	H_aCa+            4.454e-04       0.012   2.361e-04      -3.627
	H_aMg+            1.528e-04       0.004   8.098e-05      -4.092
	H_aH              7.880e-06       0.000   4.177e-06      -5.379

H_ab          
	  6.378e-02  moles
	                                   Mole                     Log
	Species               Moles    Fraction    Molality    Molality

	H_ab-2            6.331e-02       0.993   3.356e-02      -1.474
	H_abCa            2.361e-04       0.004   1.252e-04      -3.902
	H_abH-            1.702e-04       0.003   9.021e-05      -4.045
	H_abMg            6.433e-05       0.001   3.410e-05      -4.467
	H_abH2            3.551e-08       0.000   1.882e-08      -7.725

H_ad          
	  6.378e-02  moles
	                                   Mole                     Log
	Species               Moles    Fraction    Molality    Molality

	H_ad-2            2.819e-02       0.442   1.494e-02      -1.826
	H_adCa            1.786e-02       0.280   9.465e-03      -2.024
	H_adH-            1.287e-02       0.202   6.821e-03      -2.166
	H_adMg            4.864e-03       0.076   2.578e-03      -2.589
	H_adH2            2.685e-06       0.000   1.423e-06      -5.847

H_af          
	  6.378e-02  moles
	                                   Mole                     Log
	Species               Moles    Fraction    Molality    Molality

	H_afH-            5.673e-02       0.889   3.007e-02      -1.522
	H_afCa            7.016e-03       0.110   3.719e-03      -2.430
	H_af-2            2.015e-05       0.000   1.068e-05      -4.971
	H_afH2            1.184e-05       0.000   6.275e-06      -5.202
	H_afMg            3.246e-06       0.000   1.720e-06      -5.764

H_ah          
	  6.378e-02  moles
	                                   Mole                     Log
	Species               Moles    Fraction    Molality    Molality

	H_ahH-            6.375e-02       1.000   3.379e-02      -1.471
	H_ahCa            1.402e-05       0.000   7.432e-06      -5.129
	H_ahH2            1.330e-05       0.000   7.051e-06      -5.152
	H_ahMg            3.647e-06       0.000   1.933e-06      -5.714
	H_ah-2            4.732e-09       0.000   2.508e-09      -8.601

H_b           
	  3.837e-02  moles
	                                   Mole                     Log
	Species               Moles    Fraction    Molality    Molality

	H_b-              3.180e-02       0.829   1.685e-02      -1.773
	H_bCa+            4.832e-03       0.126   2.561e-03      -2.592
	H_bMg+            1.657e-03       0.043   8.783e-04      -3.056
	H_bH              8.547e-05       0.002   4.531e-05      -4.344

H_bc          
	  6.378e-02  moles
	                                   Mole                     Log
	Species               Moles    Fraction    Molality    Molality

	H_bc-2            3.463e-02       0.543   1.836e-02      -1.736
	H_bcCa            2.194e-02       0.344   1.163e-02      -1.934
	H_bcMg            5.976e-03       0.094   3.168e-03      -2.499
	H_bcH-            1.227e-03       0.019   6.506e-04      -3.187
	H_bcH2            3.299e-06       0.000   1.749e-06      -5.757

H_be          
	  6.378e-02  moles
	                                   Mole                     Log
	Species               Moles    Fraction    Molality    Molality

	H_beH-            6.187e-02       0.970   3.280e-02      -1.484
	H_be-2            1.521e-03       0.024   8.061e-04      -3.094
	H_beCa            1.753e-04       0.003   9.292e-05      -4.032
	H_beH2            1.663e-04       0.003   8.816e-05      -4.055
	H_beMg            4.560e-05       0.001   2.417e-05      -4.617

H_bg          
	  6.378e-05  moles
	                                   Mole                     Log
	Species               Moles    Fraction    Molality    Molality

	H_bgH-            6.338e-05       0.994   3.360e-05      -4.474
	H_bgCa            1.796e-07       0.003   9.519e-08      -7.021
	H_bgH2            1.704e-07       0.003   9.032e-08      -7.044
	H_bgMg            4.672e-08       0.001   2.476e-08      -7.606
	H_bg-2            3.255e-10       0.000   1.725e-10      -9.763

H_c           
	  3.837e-02  moles
	                                   Mole                     Log
	Species               Moles    Fraction    Molality    Molality

	H_cCa+            2.063e-02       0.538   1.094e-02      -1.961
	H_c-              1.030e-02       0.268   5.459e-03      -2.263
	H_cMg+            7.075e-03       0.184   3.750e-03      -2.426
	H_cH              3.650e-04       0.010   1.935e-04      -3.713

H_cd          
	  6.378e-05  moles
	                                   Mole                     Log
	Species               Moles    Fraction    Molality    Molality

	H_cdCa            4.959e-05       0.778   2.629e-05      -4.580
	H_cdMg            1.351e-05       0.212   7.161e-06      -5.145
	H_cd-2            4.610e-07       0.007   2.444e-07      -6.612
	H_cdH-            2.104e-07       0.003   1.116e-07      -6.953
	H_cdH2            7.457e-09       0.000   3.953e-09      -8.403

H_cf          
	  6.378e-02  moles
	                                   Mole                     Log
	Species               Moles    Fraction    Molality    Molality

	H_cfH-            5.890e-02       0.923   3.122e-02      -1.506
	H_cfCa            2.200e-03       0.034   1.166e-03      -2.933
	H_cfH2            2.087e-03       0.033   1.106e-03      -2.956
	H_cfMg            5.723e-04       0.009   3.034e-04      -3.518
	H_cf-2            2.092e-05       0.000   1.109e-05      -4.955

H_ch          
	  6.378e-02  moles
	                                   Mole                     Log
	Species               Moles    Fraction    Molality    Molality

	H_chH-            5.892e-02       0.924   3.123e-02      -1.505
	H_chCa            2.201e-03       0.035   1.166e-03      -2.933
	H_chH2            2.088e-03       0.033   1.107e-03      -2.956
	H_chMg            5.725e-04       0.009   3.035e-04      -3.518
	H_ch-2            4.373e-09       0.000   2.318e-09      -8.635

H_d           
	  3.837e-02  moles
	                                   Mole                     Log
	Species               Moles    Fraction    Molality    Molality

	H_dCa+            2.742e-02       0.715   1.453e-02      -1.838
	H_dMg+            9.403e-03       0.245   4.984e-03      -2.302
	H_d-              1.063e-03       0.028   5.632e-04      -3.249
	H_dH              4.851e-04       0.013   2.571e-04      -3.590

H_de          
	  6.378e-05  moles
	                                   Mole                     Log
	Species               Moles    Fraction    Molality    Molality

	H_deH-            3.055e-05       0.479   1.620e-05      -4.791
	H_deCa            1.470e-05       0.230   7.793e-06      -5.108
	H_deH2            1.395e-05       0.219   7.394e-06      -5.131
	H_deMg            3.824e-06       0.060   2.027e-06      -5.693
	H_de-2            7.510e-07       0.012   3.981e-07      -6.400

H_dg          
	  6.378e-05  moles
	                                   Mole                     Log
	Species               Moles    Fraction    Molality    Molality

	H_dgH-            3.092e-05       0.485   1.639e-05      -4.785
	H_dgCa            1.488e-05       0.233   7.886e-06      -5.103
	H_dgH2            1.411e-05       0.221   7.482e-06      -5.126
	H_dgMg            3.870e-06       0.061   2.051e-06      -5.688
	H_dg-2            1.588e-10       0.000   8.416e-11     -10.075

H_e           
	  1.919e-02  moles
	                                   Mole                     Log
	Species               Moles    Fraction    Molality    Molality

	H_eH              1.851e-02       0.965   9.812e-03      -2.008
	H_e-              4.550e-04       0.024   2.412e-04      -3.618
	H_eCa+            1.697e-04       0.009   8.996e-05      -4.046
	H_eMg+            5.432e-05       0.003   2.879e-05      -4.541

H_f           
	  1.919e-02  moles
	                                   Mole                     Log
	Species               Moles    Fraction    Molality    Molality

	H_fH              1.895e-02       0.988   1.005e-02      -1.998
	H_fCa+            1.738e-04       0.009   9.211e-05      -4.036
	H_fMg+            5.561e-05       0.003   2.948e-05      -4.530
	H_f-              6.734e-06       0.000   3.569e-06      -5.447

H_g           
	  1.919e-02  moles
	                                   Mole                     Log
	Species               Moles    Fraction    Molality    Molality

	H_gH              1.896e-02       0.988   1.005e-02      -1.998
	H_gCa+            1.738e-04       0.009   9.214e-05      -4.036
	H_gMg+            5.563e-05       0.003   2.949e-05      -4.530
	H_g-              9.736e-08       0.000   5.161e-08      -7.287

H_h           
	  1.919e-02  moles
	                                   Mole                     Log
	Species               Moles    Fraction    Molality    Molality

	H_hH              1.896e-02       0.988   1.005e-02      -1.998
	H_hCa+            1.738e-04       0.009   9.214e-05      -4.036
	H_hMg+            5.563e-05       0.003   2.949e-05      -4.530
	H_h-              1.407e-09       0.000   7.460e-10      -9.127

Hfo           
	  5.824e-13  Surface + diffuse layer charge, eq
	 -1.422e-04  Surface charge, eq
	 -8.167e-05  sigma, C/m²
	 -4.997e-04  psi, V
	  1.945e-02  -F*psi/RT
	  1.020e+00  exp(-F*psi/RT)
	  6.000e+02  specific area, m²/g
	  1.680e+05  m² for   2.800e+02 g

	Water in diffuse layer: 1.680e+00 kg,  5.8% of total DDL-water.

	Total moles in diffuse layer (excluding water), Donnan calculation.
	Donnan Layer potential, psi_DL = -2.116e-04 V.
	Boltzmann factor, exp(-psi_DL * F / RT) = 1.008e+00 (= c_DL / c_free if z is +1).

	Element       	     Moles
	Alanine       	  5.1944e-05
	Amm           	  1.4336e-04
	C             	  4.4097e-04
	Ca            	  1.7429e-03
	Cl            	  3.0323e-03
	Cysteine      	  5.1836e-05
	Ferric        	  9.9832e-08
	Ferrous       	  1.4224e-07
	Glutamine     	  5.1957e-05
	Glycine       	  5.2705e-05
	H             	  4.0209e-03
	K             	  1.0878e-04
	Methane       	  9.0167e-07
	Mg            	  7.5488e-04
	Na            	  5.4461e-04
	Nitrate       	  6.0365e-04
	O             	  5.4496e-03
	Ozero         	  2.7131e-04
	P             	  1.4491e-04
	Sulfate       	  4.6728e-04
	Sulfide       	  1.3058e-05
	Threonine     	  5.1957e-05
	Tyrosine      	  5.1957e-05

Hfo_s         
	  5.000e-06  moles
	                                   Mole                     Log
	Species               Moles    Fraction    Molality    Molality

	Hfo_sOHCa+2       4.659e-06       0.932   2.470e-06      -5.607
	Hfo_sOH2+         2.731e-07       0.055   1.448e-07      -6.839
	Hfo_sOH           6.567e-08       0.013   3.481e-08      -7.458
	Hfo_sOFerrous+    2.007e-09       0.000   1.064e-09      -8.973
	Hfo_sO-           3.616e-10       0.000   1.917e-10      -9.717

Hfo_w         
	  2.000e-04  moles
	                                   Mole                     Log
	Species               Moles    Fraction    Molality    Molality

	Hfo_wHPO4-        1.407e-04       0.704   7.460e-05      -4.127
	Hfo_wH2PO4        2.385e-05       0.119   1.264e-05      -4.898
	Hfo_wOH2+         1.701e-05       0.085   9.019e-06      -5.045
	Hfo_wPO4-2        1.410e-05       0.071   7.476e-06      -5.126
	Hfo_wOH           4.090e-06       0.020   2.168e-06      -5.664
	Hfo_wOMg+         1.581e-07       0.001   8.379e-08      -7.077
	Hfo_wO-           2.253e-08       0.000   1.194e-08      -7.923
	Hfo_wOCa+         2.059e-08       0.000   1.091e-08      -7.962
	Hfo_wSulfateO4-   9.062e-09       0.000   4.803e-09      -8.318
	Hfo_wOHSulfateO4-2   4.346e-09       0.000   2.304e-09      -8.638
	Hfo_wOFerrous+    1.167e-09       0.000   6.184e-10      -9.209
	Hfo_wOFerrousOH   1.472e-11       0.000   7.801e-12     -11.108

-----------------------------Exchange composition------------------------------

X                1.600e+01 mol

	                               Equiv-    Equivalent      Log 
	Species             Moles      alents      Fraction     Gamma

	CaX2              5.131e+00   1.026e+01   6.414e-01    -0.000
	MgX2              2.789e+00   5.578e+00   3.486e-01    -0.000
	NaX               8.901e-02   8.901e-02   5.563e-03    -0.000
	AmmH4X            4.137e-02   4.137e-02   2.585e-03    -0.000
	KX                2.813e-02   2.813e-02   1.758e-03    -0.000
	HX                6.705e-04   6.705e-04   4.191e-05    -0.030
	FerrousX2         5.774e-04   1.155e-03   7.218e-05    -0.128

-----------------------------Solution composition------------------------------

	Elements           Molality       Moles

	Alanine           3.143e-05   5.930e-05
	Amm               8.464e-05   1.597e-04
	C                 2.640e-04   4.980e-04
	Ca                1.021e-03   1.926e-03
	Cl                1.820e-03   3.433e-03
	Cysteine          3.137e-05   5.917e-05
	Ferric            5.911e-08   1.115e-07
	Ferrous           8.339e-08   1.573e-07
	Glutamine         3.144e-05   5.931e-05
	Glycine           3.163e-05   5.967e-05
	K                 6.422e-05   1.212e-04
	Methane           5.367e-07   1.013e-06
	Mg                4.423e-04   8.344e-04
	Na                3.215e-04   6.065e-04
	Nitrate           3.623e-04   6.835e-04
	Ozero             1.615e-04   3.047e-04
	P                 8.703e-05   1.642e-04
	Sulfate           2.821e-04   5.322e-04
	Sulfide           7.796e-06   1.471e-05
	Threonine         3.144e-05   5.931e-05
	Tyrosine          3.144e-05   5.931e-05

----------------------------Description of solution----------------------------

                                       pH  =   6.679      Charge balance
                                       pe  =  -6.721      Adjusted to redox equilibrium
      Specific Conductance (µS/cm,  25°C)  = 374
                        Activity of water  =   1.000
                 Ionic strength (mol/kgw)  =   5.124e-03
                       Mass of water (kg)  =   1.887e+00
                 Total alkalinity (eq/kg)  =   4.067e-04
                       Total CO2 (mol/kg)  =   2.640e-04
                         Temperature (°C)  =  25.00
                           Pressure (atm)  =  0.07
                  Electrical balance (eq)  =  -8.060e-10
 Percent error, 100*(Cat-|An|)/(Cat+|An|)  =  -0.00
                               Iterations  = 170
                                  Total H  = 2.094301e+02
                                  Total O  = 1.047190e+02

----------------------------Distribution of species----------------------------

                                               Log       Log       Log    mole V
   Species          Molality    Activity  Molality  Activity     Gamma   cm³/mol

   H+              2.243e-07   2.092e-07    -6.649    -6.679    -0.030      0.00
   OH-             5.171e-08   4.784e-08    -7.286    -7.320    -0.034     (0)  
   H2O             5.551e+01   9.999e-01     1.744    -0.000     0.000     18.07
Alanine       3.143e-05
   Alanine-2       3.142e-05   2.313e-05    -4.503    -4.636    -0.133     (0)  
   H2(Alanine)     7.496e-09   7.505e-09    -8.125    -8.125     0.001     (0)  
   H(Alanine)-     1.170e-09   1.083e-09    -8.932    -8.965    -0.033     (0)  
Amm           8.464e-05
   AmmH4+          8.423e-05   7.780e-05    -4.075    -4.109    -0.034     (0)  
   AmmH3           2.117e-07   2.119e-07    -6.674    -6.674     0.001     (0)  
   AmmH4SulfateO4-   1.939e-07   1.796e-07    -6.712    -6.746    -0.033     (0)  
C(4)          2.640e-04
   HCO3-           1.821e-04   1.690e-04    -3.740    -3.772    -0.032     (0)  
   CO2             7.940e-05   7.949e-05    -4.100    -4.100     0.001     (0)  
   CaHCO3+         1.698e-06   1.576e-06    -5.770    -5.802    -0.032     (0)  
   MgHCO3+         6.739e-07   6.241e-07    -6.171    -6.205    -0.033     (0)  
   CO3-2           5.104e-08   3.787e-08    -7.292    -7.422    -0.130     (0)  
   CaCO3           4.647e-08   4.652e-08    -7.333    -7.332     0.001     (0)  
   NaHCO3          2.825e-08   2.829e-08    -7.549    -7.548     0.001     (0)  
   MgCO3           1.140e-08   1.141e-08    -7.943    -7.943     0.001     (0)  
   FerrousHCO3+    1.020e-09   9.443e-10    -8.992    -9.025    -0.033     (0)  
   NaCO3-          2.267e-10   2.099e-10    -9.645    -9.678    -0.033     (0)  
   FerrousCO3      5.072e-11   5.078e-11   -10.295   -10.294     0.001     (0)  
Ca            1.021e-03
   Ca+2            9.860e-04   7.312e-04    -3.006    -3.136    -0.130     (0)  
   CaSulfateO4     2.611e-05   2.614e-05    -4.583    -4.583     0.001     (0)  
   CaHPO4          6.067e-06   6.074e-06    -5.217    -5.217     0.001     (0)  
   CaHCO3+         1.698e-06   1.576e-06    -5.770    -5.802    -0.032     (0)  
   CaH2PO4+        1.031e-06   9.552e-07    -5.987    -6.020    -0.033     (0)  
   CaPO4-          7.416e-08   6.868e-08    -7.130    -7.163    -0.033     (0)  
   CaCO3           4.647e-08   4.652e-08    -7.333    -7.332     0.001     (0)  
   CaOH+           6.261e-10   5.799e-10    -9.203    -9.237    -0.033     (0)  
   CaHSulfateO4+   3.459e-11   3.204e-11   -10.461   -10.494    -0.033     (0)  
Cl            1.820e-03
   Cl-             1.820e-03   1.684e-03    -2.740    -2.774    -0.034     (0)  
   FerrousCl+      1.403e-10   1.299e-10    -9.853    -9.886    -0.033     (0)  
   FerricCl+2      4.926e-17   3.625e-17   -16.307   -16.441    -0.133     (0)  
   FerricCl2+      2.945e-19   2.727e-19   -18.531   -18.564    -0.033     (0)  
   FerricCl3       4.588e-23   4.593e-23   -22.338   -22.338     0.001     (0)  
Cysteine      3.137e-05
   Cysteine-2      3.131e-05   2.304e-05    -4.504    -4.638    -0.133     (0)  
   H2(Cysteine)    6.070e-08   6.077e-08    -7.217    -7.216     0.001     (0)  
   H(Cysteine)-    2.669e-10   2.472e-10    -9.574    -9.607    -0.033     (0)  
Ferric        5.911e-08
   Ferric(OH)2+    3.758e-08   3.481e-08    -7.425    -7.458    -0.033     (0)  
   Ferric(OH)3     2.140e-08   2.143e-08    -7.670    -7.669     0.001     (0)  
   Ferric(OH)4-    1.008e-10   9.340e-11    -9.996   -10.030    -0.033     (0)  
   FerricOH+2      2.989e-11   2.199e-11   -10.525   -10.658    -0.133     (0)  
   FerricH2PO4+2   1.331e-14   9.795e-15   -13.876   -14.009    -0.133     (0)  
   FerricHPO4+     3.138e-15   2.907e-15   -14.503   -14.537    -0.033     (0)  
   FerricSulfateO4+   1.512e-15   1.400e-15   -14.820   -14.854    -0.033     (0)  
   Ferric+3        1.331e-15   7.128e-16   -14.876   -15.147    -0.271     (0)  
   FerricCl+2      4.926e-17   3.625e-17   -16.307   -16.441    -0.133     (0)  
   Ferric(SulfateO4)2-   5.926e-18   5.489e-18   -17.227   -17.261    -0.033     (0)  
   FerricCl2+      2.945e-19   2.727e-19   -18.531   -18.564    -0.033     (0)  
   Ferric2(OH)2+4   4.439e-20   1.302e-20   -19.353   -19.885    -0.533     (0)  
   FerricHSulfateO4+2   1.066e-21   7.845e-22   -20.972   -21.105    -0.133     (0)  
   FerricCl3       4.588e-23   4.593e-23   -22.338   -22.338     0.001     (0)  
   Ferric3(OH)4+5   6.434e-25   9.468e-26   -24.192   -25.024    -0.832     (0)  
Ferrous       8.339e-08
   Ferrous+2       7.505e-08   5.589e-08    -7.125    -7.253    -0.128     (0)  
   FerrousHPO4     3.367e-09   3.371e-09    -8.473    -8.472     0.001     (0)  
   FerrousSulfateO4   1.779e-09   1.781e-09    -8.750    -8.749     0.001     (0)  
   FerrousH2PO4+   1.544e-09   1.430e-09    -8.811    -8.845    -0.033     (0)  
   FerrousHCO3+    1.020e-09   9.443e-10    -8.992    -9.025    -0.033     (0)  
   Ferrous(HSulfide)2   3.576e-10   3.580e-10    -9.447    -9.446     0.001     (0)  
   FerrousCl+      1.403e-10   1.299e-10    -9.853    -9.886    -0.033     (0)  
   FerrousOH+      9.119e-11   8.447e-11   -10.040   -10.073    -0.033     (0)  
   FerrousCO3      5.072e-11   5.078e-11   -10.295   -10.294     0.001     (0)  
   Ferrous(HSulfide)3-   1.128e-13   1.045e-13   -12.948   -12.981    -0.033     (0)  
   FerrousHSulfateO4+   2.644e-15   2.449e-15   -14.578   -14.611    -0.033     (0)  
Glutamine     3.144e-05
   Glutamine-2     3.144e-05   2.314e-05    -4.503    -4.636    -0.133     (0)  
   H2(Glutamine)   1.365e-09   1.366e-09    -8.865    -8.864     0.001     (0)  
   H(Glutamine)-   7.730e-10   7.160e-10    -9.112    -9.145    -0.033     (0)  
Glycine       3.163e-05
   Glycine-        3.162e-05   2.929e-05    -4.500    -4.533    -0.033     (0)  
   H2(Glycine)+    5.511e-09   5.105e-09    -8.259    -8.292    -0.033     (0)  
   H(Glycine)      1.339e-09   1.341e-09    -8.873    -8.873     0.001     (0)  
H(0)          1.712e-03
   H2              8.558e-04   8.568e-04    -3.068    -3.067     0.001     (0)  
K             6.422e-05
   K+              6.414e-05   5.935e-05    -4.193    -4.227    -0.034     (0)  
   KSulfateO4-     8.067e-08   7.472e-08    -7.093    -7.127    -0.033     (0)  
   KHPO4-          1.893e-09   1.753e-09    -8.723    -8.756    -0.033     (0)  
   KOH             9.824e-13   9.836e-13   -12.008   -12.007     0.001     (0)  
Methane       5.367e-07
   MethaneH4       5.367e-07   5.373e-07    -6.270    -6.270     0.001     (0)  
Mg            4.423e-04
   Mg+2            4.242e-04   3.157e-04    -3.372    -3.501    -0.128     (0)  
   MgSulfateO4     1.324e-05   1.326e-05    -4.878    -4.877     0.001     (0)  
   MgHPO4          3.541e-06   3.546e-06    -5.451    -5.450     0.001     (0)  
   MgHCO3+         6.739e-07   6.241e-07    -6.171    -6.205    -0.033     (0)  
   MgH2PO4+        5.670e-07   5.252e-07    -6.246    -6.280    -0.033     (0)  
   MgPO4-          4.319e-08   4.000e-08    -7.365    -7.398    -0.033     (0)  
   MgCO3           1.140e-08   1.141e-08    -7.943    -7.943     0.001     (0)  
   MgOH+           5.914e-09   5.478e-09    -8.228    -8.261    -0.033     (0)  
Na            3.215e-04
   Na+             3.212e-04   2.977e-04    -3.493    -3.526    -0.033     (0)  
   NaSulfateO4-    2.886e-07   2.673e-07    -6.540    -6.573    -0.033     (0)  
   NaHCO3          2.825e-08   2.829e-08    -7.549    -7.548     0.001     (0)  
   NaHPO4-         9.495e-09   8.794e-09    -8.023    -8.056    -0.033     (0)  
   NaCO3-          2.267e-10   2.099e-10    -9.645    -9.678    -0.033     (0)  
   NaOH            9.389e-12   9.400e-12   -11.027   -11.027     0.001     (0)  
Nitrate       3.623e-04
   NitrateO3-      3.623e-04   3.356e-04    -3.441    -3.474    -0.033     (0)  
O(0)          0.000e+00
   O2              0.000e+00   0.000e+00   -86.246   -86.246     0.001     (0)  
Ozero         1.615e-04
   Ozero2          8.075e-05   8.084e-05    -4.093    -4.092     0.001     (0)  
P             8.703e-05
   H2PO4-          5.509e-05   5.106e-05    -4.259    -4.292    -0.033     (0)  
   HPO4-2          2.060e-05   1.515e-05    -4.686    -4.820    -0.133     (0)  
   CaHPO4          6.067e-06   6.074e-06    -5.217    -5.217     0.001     (0)  
   MgHPO4          3.541e-06   3.546e-06    -5.451    -5.450     0.001     (0)  
   CaH2PO4+        1.031e-06   9.552e-07    -5.987    -6.020    -0.033     (0)  
   MgH2PO4+        5.670e-07   5.252e-07    -6.246    -6.280    -0.033     (0)  
   CaPO4-          7.416e-08   6.868e-08    -7.130    -7.163    -0.033     (0)  
   MgPO4-          4.319e-08   4.000e-08    -7.365    -7.398    -0.033     (0)  
   NaHPO4-         9.495e-09   8.794e-09    -8.023    -8.056    -0.033     (0)  
   FerrousHPO4     3.367e-09   3.371e-09    -8.473    -8.472     0.001     (0)  
   KHPO4-          1.893e-09   1.753e-09    -8.723    -8.756    -0.033     (0)  
   FerrousH2PO4+   1.544e-09   1.430e-09    -8.811    -8.845    -0.033     (0)  
   PO4-3           6.519e-11   3.265e-11   -10.186   -10.486    -0.300     (0)  
   FerricH2PO4+2   1.331e-14   9.795e-15   -13.876   -14.009    -0.133     (0)  
   FerricHPO4+     3.138e-15   2.907e-15   -14.503   -14.537    -0.033     (0)  
Sulfate       2.821e-04
   SulfateO4-2     2.422e-04   1.792e-04    -3.616    -3.747    -0.131     (0)  
   CaSulfateO4     2.611e-05   2.614e-05    -4.583    -4.583     0.001     (0)  
   MgSulfateO4     1.324e-05   1.326e-05    -4.878    -4.877     0.001     (0)  
   NaSulfateO4-    2.886e-07   2.673e-07    -6.540    -6.573    -0.033     (0)  
   AmmH4SulfateO4-   1.939e-07   1.796e-07    -6.712    -6.746    -0.033     (0)  
   KSulfateO4-     8.067e-08   7.472e-08    -7.093    -7.127    -0.033     (0)  
   HSulfateO4-     3.935e-09   3.645e-09    -8.405    -8.438    -0.033     (0)  
   FerrousSulfateO4   1.779e-09   1.781e-09    -8.750    -8.749     0.001     (0)  
   CaHSulfateO4+   3.459e-11   3.204e-11   -10.461   -10.494    -0.033     (0)  
   FerrousHSulfateO4+   2.644e-15   2.449e-15   -14.578   -14.611    -0.033     (0)  
   FerricSulfateO4+   1.512e-15   1.400e-15   -14.820   -14.854    -0.033     (0)  
   Ferric(SulfateO4)2-   5.926e-18   5.489e-18   -17.227   -17.261    -0.033     (0)  
   FerricHSulfateO4+2   1.066e-21   7.845e-22   -20.972   -21.105    -0.133     (0)  
Sulfide       7.796e-06
   H2Sulfide       4.898e-06   4.904e-06    -5.310    -5.309     0.001     (0)  
   HSulfide-       2.897e-06   2.681e-06    -5.538    -5.572    -0.034     (0)  
   Ferrous(HSulfide)2   3.576e-10   3.580e-10    -9.447    -9.446     0.001     (0)  
   Sulfide-2       2.091e-12   1.548e-12   -11.680   -11.810    -0.131     (0)  
   Ferrous(HSulfide)3-   1.128e-13   1.045e-13   -12.948   -12.981    -0.033     (0)  
Threonine     3.144e-05
   Threonine-2     3.144e-05   2.314e-05    -4.503    -4.636    -0.133     (0)  
   H2(Threonine)   1.334e-09   1.335e-09    -8.875    -8.874     0.001     (0)  
   H(Threonine)-   7.383e-10   6.838e-10    -9.132    -9.165    -0.033     (0)  
Tyrosine      3.144e-05
   Tyrosine-2      3.144e-05   2.314e-05    -4.503    -4.636    -0.133     (0)  
   H2(Tyrosine)    1.303e-09   1.305e-09    -8.885    -8.884     0.001     (0)  
   H(Tyrosine)-    8.283e-10   7.672e-10    -9.082    -9.115    -0.033     (0)  

------------------------------Saturation indices-------------------------------

  Phase               SI** log IAP   log K(298 K,   0 atm)

  FixpH            -6.68     -6.68    0.00  H+
  H2(g)             0.08     -3.07   -3.15  H2
  H2O(g)           -1.51     -0.00    1.51  H2O
  Halite           -7.88     -6.30    1.58  NaCl
  Hydroxyapatite    0.00     -3.42   -3.42  Ca5(PO4)3OH
  ORM             813.97    -65.26 -879.23  C5H4O2Amm
  redoxAnhydrite   -2.52     -6.88   -4.36  CaSulfateO4
  redoxAragonite   -2.22    -10.56   -8.34  CaCO3
  redoxCalcite     -2.08    -10.56   -8.48  CaCO3
  redoxCH4(g)      -3.41     -6.27   -2.86  MethaneH4
  redoxCO2(g)      -2.63     -4.10   -1.47  CO2
  redoxDolomite    -4.39    -21.48  -17.09  CaMg(CO3)2
  redoxFe(OH)3(a)   0.00      4.89    4.89  Ferric(OH)3
  redoxFeS(ppt)    -2.23     -6.15   -3.92  FerrousSulfide
  redoxGoethite     5.89      4.89   -1.00  FerricOOH
  redoxGypsum      -2.30     -6.88   -4.58  CaSulfateO4:2H2O
  redoxH2S(g)      -4.31     -5.31   -1.00  H2Sulfide
  redoxHematite    13.79      9.78   -4.01  Ferric2O3
  redoxJarosite-K  -7.88    -17.09   -9.21  KFerric3(SulfateO4)2(OH)6
  redoxMackinawite  -1.50     -6.15   -4.65  FerrousSulfide
  redoxMelanterite  -8.79    -11.00   -2.21  FerrousSulfateO4:7H2O
  redoxNH3(g)      -8.44     -6.67    1.77  AmmH3
  redoxO2(g)       -1.20     -4.09   -2.89  Ozero2
  redoxPyrite       0.00    -18.48  -18.48  FerrousSulfide2
  redoxSiderite    -3.78    -14.67  -10.89  FerrousCO3
  redoxSulfur     -10.27     -5.39    4.88  Sulfide
  redoxVivianite   -6.73    -42.73  -36.00  Ferrous3(PO4)2:8H2O

**For a gas, SI = log10(fugacity). Fugacity = pressure * phi / 1 atm.
  For ideal gases, phi = 1.

Reaction step 2.

Using solution 1.	
Using exchange 1.	Exchange assemblage after simulation 3.
Using surface 1.	
Using pure phase assemblage 1.	
Using gas phase 1.	fixed volume gas phase
Using kinetics 1.	Decomposition  

Kinetics 1.	Decomposition  

	Time step: 1 seconds  (Incremented time: 2 seconds)

	Rate name       Delta Moles Total Moles   Reactant        Coefficient

	BA                6.289e-02   6.913e-01   CH2O                      0
	OAC               2.338e-02   9.119e-02   CH2O                      0
	Aero              1.768e-03   1.003e+00   CH2O                      0
	                                          HCO3                  -1.44
	                                          Ozero2                 1.44
	SulR              3.109e-06   1.000e+00   CH2O                      0
	                                          HCO3                     -9
	                                          HSulfide-              -4.5
	                                          SulfateO4-2             4.5
	Meth             -0.000e+00   1.000e+00   CH2O                      0
	                                          HCO3                  20.24
	                                          MethaneH4            -20.24
	POM              -1.406e-01   4.425e+00   CH2O                      0
	MOM               7.300e-02   1.605e+01   CH2O                      0
	DOM              -1.296e-01   6.982e-02   CH2O                      0
	QOM              -5.351e-03   1.753e+00   CH2O                      0
	EP                6.113e-04   5.314e-02   CH2O                      0
	EM                6.113e-04   5.314e-02   CH2O                      0
	respiration       1.444e-01   3.384e-01   CH2O                      0
	Tot              -1.446e-01   2.315e+01   CH2O                      0
	Salt              9.753e-04   2.960e-03   CH2O                      0
	                                          Ca+2                     -2
	                                          Cl-                     -24
	                                          HCO3                     -3
	                                          K+                       -1
	                                          Mg+2                     -4
	                                          Na+                     -25
	                                          Nitrate                  -5
	                                          Sulfate                  -3
	Caero             4.313e-03   6.200e-03   CH2O                      0
	Csulr             3.109e-05   3.624e-05   CH2O                      0
	Cmeth            -0.000e+00   0.000e+00   CH2O                      0

-----------------------------------Gas phase-----------------------------------

Total pressure:  0.07      atmospheres 
    Gas volume:   9.00e-01 liters
  Molar volume:   3.58e+02 liters/mole

                                                        Moles in gas
                                            ----------------------------------
Component                log P           P     Initial       Final       Delta

redoxCH4(g)              -3.41   3.894e-04   1.432e-05   1.432e-05   4.908e-09
redoxCO2(g)              -2.32   4.837e-03   8.589e-05   1.779e-04   9.205e-05
redoxO2(g)               -1.20   6.310e-02   2.321e-03   2.321e-03   0.000e+00

-------------------------------Phase assemblage--------------------------------

                                                      Moles in assemblage
Phase               SI  log IAP  log K(T, P)   Initial       Final       Delta

Hydroxyapatite    0.00    -3.42     -3.42    5.429e-04   5.742e-04   3.128e-05
redoxCalcite     -1.75   -10.23     -8.48    0.000e+00           0   0.000e+00
redoxFe(OH)3(a)   -0.00     4.89      4.89    2.005e+00   2.005e+00  -3.973e-08
redoxFeS(ppt)    -2.08    -5.99     -3.92    0.000e+00           0   0.000e+00
redoxO2(g)       -1.20    -4.09     -2.89    1.013e+00   1.010e+00  -2.544e-03
redoxPyrite       0.00   -18.48    -18.48    1.407e-03   1.378e-03  -2.852e-05

------------------------------Surface composition------------------------------

Diffuse Double Layer Surface-Complexation Model

H             
	 -3.540e-09  Surface + diffuse layer charge, eq
	 -6.016e-01  Surface charge, eq
	 -2.123e-02  sigma, C/m²
	 -7.519e-02  psi, V
	  2.927e+00  -F*psi/RT
	  1.867e+01  exp(-F*psi/RT)
	  3.417e+04  specific area, m²/g
	  2.734e+06  m² for   8.000e+01 g

	Water in diffuse layer: 2.734e+01 kg, 94.2% of total DDL-water.

	Total moles in diffuse layer (excluding water), Donnan calculation.
	Donnan Layer potential, psi_DL = -2.086e-02 V.
	Boltzmann factor, exp(-psi_DL * F / RT) = 2.252e+00 (= c_DL / c_free if z is +1).

	Element       	     Moles
	Alanine       	  1.3714e-04
	Amm           	  6.4047e-03
	C             	  8.7732e-03
	Ca            	  2.1717e-01
	Cl            	  3.7232e-02
	Cysteine      	  1.3811e-04
	Ferric        	  3.3998e-06
	Ferrous       	  1.6668e-05
	Glutamine     	  1.3703e-04
	Glycine       	  3.3291e-04
	H             	  1.2308e-01
	K             	  5.0082e-03
	Methane       	  1.4667e-05
	Mg            	  9.3505e-02
	Na            	  2.9483e-02
	Nitrate       	  7.5795e-03
	O             	  6.5625e-02
	Ozero         	  4.4119e-03
	P             	  9.8676e-04
	Sulfate       	  4.2764e-03
	Sulfide       	  2.2566e-04
	Threonine     	  1.3703e-04
	Tyrosine      	  1.3703e-04

H_a           
	  3.837e-02  moles
	                                   Mole                     Log
	Species               Moles    Fraction    Molality    Molality

	H_a-              3.789e-02       0.988   2.009e-02      -1.697
	H_aCa+            3.507e-04       0.009   1.860e-04      -3.731
	H_aMg+            1.204e-04       0.003   6.383e-05      -4.195
	H_aH              6.874e-06       0.000   3.645e-06      -5.438

H_ab          
	  6.378e-02  moles
	                                   Mole                     Log
	Species               Moles    Fraction    Molality    Molality

	H_ab-2            6.340e-02       0.994   3.361e-02      -1.474
	H_abCa            1.856e-04       0.003   9.839e-05      -4.007
	H_abH-            1.482e-04       0.002   7.856e-05      -4.105
	H_abMg            5.060e-05       0.001   2.683e-05      -4.571
	H_abH2            2.688e-08       0.000   1.425e-08      -7.846

H_ad          
	  6.378e-02  moles
	                                   Mole                     Log
	Species               Moles    Fraction    Molality    Molality

	H_ad-2            3.142e-02       0.493   1.666e-02      -1.778
	H_adCa            1.562e-02       0.245   8.282e-03      -2.082
	H_adH-            1.247e-02       0.196   6.613e-03      -2.180
	H_adMg            4.259e-03       0.067   2.258e-03      -2.646
	H_adH2            2.263e-06       0.000   1.200e-06      -5.921

H_af          
	  6.378e-02  moles
	                                   Mole                     Log
	Species               Moles    Fraction    Molality    Molality

	H_afH-            5.734e-02       0.899   3.040e-02      -1.517
	H_afCa            6.401e-03       0.100   3.394e-03      -2.469
	H_af-2            2.343e-05       0.000   1.242e-05      -4.906
	H_afH2            1.040e-05       0.000   5.516e-06      -5.258
	H_afMg            2.964e-06       0.000   1.571e-06      -5.804

H_ah          
	  6.378e-02  moles
	                                   Mole                     Log
	Species               Moles    Fraction    Molality    Molality

	H_ahH-            6.375e-02       1.000   3.380e-02      -1.471
[...]
	Species               Moles    Fraction    Molality    Molality

	H_fH              1.909e-02       0.995   1.025e-02      -1.989
	H_fCa+            6.219e-05       0.003   3.338e-05      -4.476
	H_fMg+            2.161e-05       0.001   1.160e-05      -4.935
	H_f-              1.307e-05       0.001   7.016e-06      -5.154

H_g           
	  1.919e-02  moles
	                                   Mole                     Log
	Species               Moles    Fraction    Molality    Molality

	H_gH              1.911e-02       0.996   1.026e-02      -1.989
	H_gCa+            6.224e-05       0.003   3.341e-05      -4.476
	H_gMg+            2.163e-05       0.001   1.161e-05      -4.935
	H_g-              1.890e-07       0.000   1.015e-07      -6.994

H_h           
	  1.919e-02  moles
	                                   Mole                     Log
	Species               Moles    Fraction    Molality    Molality

	H_hH              1.911e-02       0.996   1.026e-02      -1.989
	H_hCa+            6.224e-05       0.003   3.341e-05      -4.476
	H_hMg+            2.163e-05       0.001   1.161e-05      -4.935
	H_h-              2.732e-09       0.000   1.467e-09      -8.834

Hfo           
	  4.107e-13  Surface + diffuse layer charge, eq
	  4.180e-06  Surface charge, eq
	  2.401e-06  sigma, C/m²
	  3.143e-06  psi, V
	 -1.223e-04  -F*psi/RT
	  9.999e-01  exp(-F*psi/RT)
	  6.000e+02  specific area, m²/g
	  1.680e+05  m² for   2.800e+02 g

	Water in diffuse layer: 1.680e+00 kg,  5.8% of total DDL-water.

	Total moles in diffuse layer (excluding water), Donnan calculation.
	Donnan Layer potential, psi_DL =  2.754e-07 V.
	Boltzmann factor, exp(-psi_DL * F / RT) = 1.000e+00 (= c_DL / c_free if z is +1).

	Element       	     Moles
	Alanine       	  1.5025e-05
	Amm           	  5.5238e-04
	C             	  3.3790e-02
	Ca            	  3.9028e-02
	Cl            	  9.0197e-02
	Cysteine      	  1.5036e-05
	Ferric        	  3.3724e-07
	Ferrous       	  4.2067e-08
	Glutamine     	  1.5024e-05
	Glycine       	  2.5814e-05
	H             	  1.8387e-01
	K             	  1.1602e-03
	Methane       	  8.9175e-07
	Mg            	  1.7766e-02
	Na            	  2.7564e-02
	Nitrate       	  1.8777e-02
	O             	  1.7577e-01
	Ozero         	  2.6472e-04
	P             	  1.0000e-04
	Sulfate       	  9.0926e-03
	Sulfide       	  1.9653e-03
	Threonine     	  1.5024e-05
	Tyrosine      	  1.5024e-05

Hfo_s         
	  5.000e-06  moles
	                                   Mole                     Log
	Species               Moles    Fraction    Molality    Molality

	Hfo_sOHCa+2       4.886e-06       0.977   2.623e-06      -5.581
	Hfo_sOH2+         1.075e-07       0.021   5.770e-08      -7.239
	Hfo_sOH           6.638e-09       0.001   3.563e-09      -8.448
	Hfo_sO-           9.391e-12       0.000   5.041e-12     -11.297
	Hfo_sOFerrous+    1.079e-12       0.000   5.792e-13     -12.237

Hfo_w         
	  2.000e-04  moles
	                                   Mole                     Log
	Species               Moles    Fraction    Molality    Molality

	Hfo_wHPO4-        7.335e-05       0.367   3.937e-05      -4.405
	Hfo_wOH2+         7.117e-05       0.356   3.820e-05      -4.418
	Hfo_wH2PO4        4.839e-05       0.242   2.597e-05      -4.585
	Hfo_wOH           4.395e-06       0.022   2.359e-06      -5.627
	Hfo_wPO4-2        1.888e-06       0.009   1.014e-06      -5.994
	Hfo_wOMg+         4.915e-07       0.002   2.638e-07      -6.579
	Hfo_wSulfateO4-   2.273e-07       0.001   1.220e-07      -6.914
	Hfo_wOCa+         5.896e-08       0.000   3.165e-08      -7.500
	Hfo_wOHSulfateO4-2   2.791e-08       0.000   1.498e-08      -7.824
	Hfo_wO-           6.218e-09       0.000   3.338e-09      -8.477
	Hfo_wOFerrous+    6.667e-12       0.000   3.579e-12     -11.446
	Hfo_wOFerrousOH   2.154e-14       0.000   1.156e-14     -13.937

-----------------------------Exchange composition------------------------------

X                1.600e+01 mol

	                               Equiv-    Equivalent      Log 
	Species             Moles      alents      Fraction     Gamma

	CaX2              4.652e+00   9.305e+00   5.815e-01    -0.000
	MgX2              2.746e+00   5.491e+00   3.432e-01    -0.000
	NaX               1.095e+00   1.095e+00   6.844e-02    -0.000
	KX                7.120e-02   7.120e-02   4.450e-03    -0.000
	AmmH4X            3.676e-02   3.676e-02   2.297e-03    -0.000
	HX                8.772e-04   8.772e-04   5.482e-05    -0.086
	FerrousX2         2.006e-06   4.013e-06   2.508e-07    -0.411

-----------------------------Solution composition------------------------------

	Elements           Molality       Moles

	Alanine           8.943e-06   1.666e-05
	Amm               3.288e-04   6.125e-04
	C                 2.011e-02   3.747e-02
	Ca                2.323e-02   4.328e-02
	Cl                5.369e-02   1.000e-01
	Cysteine          8.950e-06   1.667e-05
	Ferric            2.007e-07   3.740e-07
	Ferrous           2.504e-08   4.665e-08
	Glutamine         8.942e-06   1.666e-05
	Glycine           1.537e-05   2.862e-05
	K                 6.906e-04   1.286e-03
	Methane           5.308e-07   9.888e-07
	Mg                1.058e-02   1.970e-02
	Na                1.641e-02   3.057e-02
	Nitrate           1.118e-02   2.082e-02
	Ozero             1.576e-04   2.935e-04
	P                 5.953e-05   1.109e-04
	Sulfate           5.412e-03   1.008e-02
	Sulfide           1.170e-03   2.179e-03
	Threonine         8.942e-06   1.666e-05
	Tyrosine          8.942e-06   1.666e-05

----------------------------Description of solution----------------------------

                                       pH  =   6.081      Charge balance
                                       pe  =  -7.004      Adjusted to redox equilibrium
      Specific Conductance (µS/cm,  25°C)  = 7779
                        Activity of water  =   0.997
                 Ionic strength (mol/kgw)  =   1.120e-01
                       Mass of water (kg)  =   1.863e+00
                 Total alkalinity (eq/kg)  =   9.247e-03
                       Total CO2 (mol/kg)  =   2.011e-02
                         Temperature (°C)  =  25.00
                           Pressure (atm)  =  0.40
                  Electrical balance (eq)  =  -1.639e-07
 Percent error, 100*(Cat-|An|)/(Cat+|An|)  =  -0.00
                               Iterations  = 128
                                  Total H  = 2.070108e+02
                                  Total O  = 1.035983e+02

----------------------------Distribution of species----------------------------

                                               Log       Log       Log    mole V
   Species          Molality    Activity  Molality  Activity     Gamma   cm³/mol

   H+              1.012e-06   8.306e-07    -5.995    -6.081    -0.086      0.00
   OH-             1.596e-08   1.201e-08    -7.797    -7.920    -0.123     (0)  
   H2O             5.551e+01   9.968e-01     1.744    -0.001     0.000     18.07
Alanine       8.943e-06
   Alanine-2       8.926e-06   3.219e-06    -5.049    -5.492    -0.443     (0)  
   H2(Alanine)     1.604e-08   1.646e-08    -7.795    -7.784     0.011     (0)  
   H(Alanine)-     7.724e-10   5.985e-10    -9.112    -9.223    -0.111     (0)  
Amm           3.288e-04
   AmmH4+          3.246e-04   2.385e-04    -3.489    -3.623    -0.134     (0)  
   AmmH4SulfateO4-   4.082e-06   3.164e-06    -5.389    -5.500    -0.111     (0)  
   AmmH3           1.595e-07   1.636e-07    -6.797    -6.786     0.011     (0)  
C(4)          2.011e-02
   CO2             1.113e-02   1.142e-02    -1.953    -1.942     0.011     (0)  
   HCO3-           7.804e-03   6.098e-03    -2.108    -2.215    -0.107     (0)  
   CaHCO3+         7.854e-04   6.138e-04    -3.105    -3.212    -0.107     (0)  
   MgHCO3+         3.405e-04   2.639e-04    -3.468    -3.579    -0.111     (0)  
   NaHCO3          4.222e-05   4.333e-05    -4.374    -4.363     0.011     (0)  
   CaCO3           4.447e-06   4.563e-06    -5.352    -5.341     0.011     (0)  
   MgCO3           1.184e-06   1.215e-06    -5.927    -5.915     0.011     (0)  
   CO3-2           9.233e-07   3.443e-07    -6.035    -6.463    -0.428     (0)  
   NaCO3-          1.045e-07   8.100e-08    -6.981    -7.091    -0.111     (0)  
   FerrousHCO3+    9.470e-10   7.339e-10    -9.024    -9.134    -0.111     (0)  
   FerrousCO3      9.687e-12   9.940e-12   -11.014   -11.003     0.011     (0)  
Ca            2.323e-02
   Ca+2            2.085e-02   7.889e-03    -1.681    -2.103    -0.422     (0)  
   CaSulfateO4     1.580e-03   1.621e-03    -2.801    -2.790     0.011     (0)  
   CaHCO3+         7.854e-04   6.138e-04    -3.105    -3.212    -0.107     (0)  
   CaHPO4          7.628e-06   7.828e-06    -5.118    -5.106     0.011     (0)  
   CaH2PO4+        6.306e-06   4.887e-06    -5.200    -5.311    -0.111     (0)  
   CaCO3           4.447e-06   4.563e-06    -5.352    -5.341     0.011     (0)  
   CaPO4-          2.877e-08   2.230e-08    -7.541    -7.652    -0.111     (0)  
   CaHSulfateO4+   1.018e-08   7.887e-09    -7.992    -8.103    -0.111     (0)  
   CaOH+           2.028e-09   1.571e-09    -8.693    -8.804    -0.111     (0)  
Cl            5.369e-02
   Cl-             5.369e-02   4.058e-02    -1.270    -1.392    -0.122     (0)  
   FerrousCl+      8.699e-11   6.741e-11   -10.061   -10.171    -0.111     (0)  
   FerricCl+2      1.530e-13   5.516e-14   -12.815   -13.258    -0.443     (0)  
   FerricCl2+      1.290e-14   9.998e-15   -13.889   -14.000    -0.111     (0)  
   FerricCl3       3.954e-17   4.057e-17   -16.403   -16.392     0.011     (0)  
Cysteine      8.950e-06
   Cysteine-2      8.821e-06   3.181e-06    -5.055    -5.497    -0.443     (0)  
   H2(Cysteine)    1.289e-07   1.322e-07    -6.890    -6.879     0.011     (0)  
   H(Cysteine)-    1.748e-10   1.355e-10    -9.757    -9.868    -0.111     (0)  
Ferric        2.007e-07
   Ferric(OH)2+    1.789e-07   1.386e-07    -6.747    -6.858    -0.111     (0)  
   Ferric(OH)3     2.088e-08   2.143e-08    -7.680    -7.669     0.011     (0)  
   FerricOH+2      9.672e-10   3.488e-10    -9.014    -9.457    -0.443     (0)  
   Ferric(OH)4-    3.027e-11   2.345e-11   -10.519   -10.630    -0.111     (0)  
   FerricH2PO4+2   8.134e-13   2.933e-13   -12.090   -12.533    -0.443     (0)  
   FerricSulfateO4+   6.558e-13   5.082e-13   -12.183   -12.294    -0.111     (0)  
   Ferric+3        2.663e-13   4.501e-14   -12.575   -13.347    -0.772     (0)  
   FerricCl+2      1.530e-13   5.516e-14   -12.815   -13.258    -0.443     (0)  
   FerricHPO4+     2.829e-14   2.192e-14   -13.548   -13.659    -0.111     (0)  
   Ferric(SulfateO4)2-   1.478e-14   1.145e-14   -13.830   -13.941    -0.111     (0)  
   FerricCl2+      1.290e-14   9.998e-15   -13.889   -14.000    -0.111     (0)  
   Ferric2(OH)2+4   1.936e-16   3.274e-18   -15.713   -17.485    -1.772     (0)  
   FerricCl3       3.954e-17   4.057e-17   -16.403   -16.392     0.011     (0)  
   FerricHSulfateO4+2   3.135e-18   1.130e-18   -17.504   -17.947    -0.443     (0)  
   Ferric3(OH)4+5   5.564e-20   9.481e-23   -19.255   -22.023    -2.769     (0)  
Ferrous       2.504e-08
   Ferrous(HSulfide)2   2.024e-08   2.077e-08    -7.694    -7.683     0.011     (0)  
   Ferrous+2       3.103e-09   1.203e-09    -8.508    -8.920    -0.411     (0)  
   FerrousHCO3+    9.470e-10   7.339e-10    -9.024    -9.134    -0.111     (0)  
   Ferrous(HSulfide)3-   4.062e-10   3.148e-10    -9.391    -9.502    -0.111     (0)  
   FerrousSulfateO4   2.148e-10   2.204e-10    -9.668    -9.657     0.011     (0)  
   FerrousCl+      8.699e-11   6.741e-11   -10.061   -10.171    -0.111     (0)  
   FerrousH2PO4+   1.884e-11   1.460e-11   -10.725   -10.836    -0.111     (0)  
   FerrousCO3      9.687e-12   9.940e-12   -11.014   -11.003     0.011     (0)  
   FerrousHPO4     8.450e-12   8.670e-12   -11.073   -11.062     0.011     (0)  
   FerrousOH+      5.894e-13   4.567e-13   -12.230   -12.340    -0.111     (0)  
   FerrousHSulfateO4+   1.553e-15   1.203e-15   -14.809   -14.920    -0.111     (0)  
Glutamine     8.942e-06
   Glutamine-2     8.939e-06   3.223e-06    -5.049    -5.492    -0.443     (0)  
   H2(Glutamine)   2.923e-09   3.000e-09    -8.534    -8.523     0.011     (0)  
   H(Glutamine)-   5.110e-10   3.960e-10    -9.292    -9.402    -0.111     (0)  
Glycine       1.537e-05
   Glycine-        1.532e-05   1.187e-05    -4.815    -4.925    -0.111     (0)  
   H2(Glycine)+    4.208e-08   3.261e-08    -7.376    -7.487    -0.111     (0)  
   H(Glycine)      2.102e-09   2.157e-09    -8.677    -8.666     0.011     (0)  
H(0)          9.690e-02
   H2              4.845e-02   4.972e-02    -1.315    -1.304     0.011     (0)  
K             6.906e-04
   K+              6.857e-04   5.183e-04    -3.164    -3.285    -0.122     (0)  
   KSulfateO4-     4.840e-06   3.750e-06    -5.315    -5.426    -0.111     (0)  
   KHPO4-          2.360e-09   1.829e-09    -8.627    -8.738    -0.111     (0)  
   KOH             2.102e-12   2.157e-12   -11.677   -11.666     0.011     (0)  
Methane       5.308e-07
   MethaneH4       5.308e-07   5.447e-07    -6.275    -6.264     0.011     (0)  
Mg            1.058e-02
   Mg+2            9.355e-03   3.698e-03    -2.029    -2.432    -0.403     (0)  
   MgSulfateO4     8.701e-04   8.928e-04    -3.060    -3.049     0.011     (0)  
   MgHCO3+         3.405e-04   2.639e-04    -3.468    -3.579    -0.111     (0)  
   MgHPO4          4.835e-06   4.961e-06    -5.316    -5.304     0.011     (0)  
   MgH2PO4+        3.765e-06   2.917e-06    -5.424    -5.535    -0.111     (0)  
   MgCO3           1.184e-06   1.215e-06    -5.927    -5.915     0.011     (0)  
   MgOH+           2.079e-08   1.611e-08    -7.682    -7.793    -0.111     (0)  
   MgPO4-          1.820e-08   1.410e-08    -7.740    -7.851    -0.111     (0)  
Na            1.641e-02
   Na+             1.628e-02   1.263e-02    -1.788    -1.898    -0.110     (0)  
   NaSulfateO4-    8.415e-05   6.521e-05    -4.075    -4.186    -0.111     (0)  
   NaHCO3          4.222e-05   4.333e-05    -4.374    -4.363     0.011     (0)  
   NaCO3-          1.045e-07   8.100e-08    -6.981    -7.091    -0.111     (0)  
   NaHPO4-         5.753e-08   4.458e-08    -7.240    -7.351    -0.111     (0)  
   NaOH            9.763e-11   1.002e-10   -10.010    -9.999     0.011     (0)  
Nitrate       1.118e-02
   NitrateO3-      1.118e-02   8.661e-03    -1.952    -2.062    -0.111     (0)  
O(0)          0.000e+00
   O2              0.000e+00   0.000e+00   -89.787   -89.776     0.011     (0)  
Ozero         1.576e-04
   Ozero2          7.879e-05   8.084e-05    -4.104    -4.092     0.011     (0)  
P             5.953e-05
   H2PO4-          3.149e-05   2.421e-05    -4.502    -4.616    -0.114     (0)  
   CaHPO4          7.628e-06   7.828e-06    -5.118    -5.106     0.011     (0)  
   CaH2PO4+        6.306e-06   4.887e-06    -5.200    -5.311    -0.111     (0)  
   HPO4-2          5.393e-06   1.810e-06    -5.268    -5.742    -0.474     (0)  
   MgHPO4          4.835e-06   4.961e-06    -5.316    -5.304     0.011     (0)  
   MgH2PO4+        3.765e-06   2.917e-06    -5.424    -5.535    -0.111     (0)  
   NaHPO4-         5.753e-08   4.458e-08    -7.240    -7.351    -0.111     (0)  
   CaPO4-          2.877e-08   2.230e-08    -7.541    -7.652    -0.111     (0)  
   MgPO4-          1.820e-08   1.410e-08    -7.740    -7.851    -0.111     (0)  
   KHPO4-          2.360e-09   1.829e-09    -8.627    -8.738    -0.111     (0)  
   FerrousH2PO4+   1.884e-11   1.460e-11   -10.725   -10.836    -0.111     (0)  
   PO4-3           1.146e-11   9.823e-13   -10.941   -12.008    -1.067     (0)  
   FerrousHPO4     8.450e-12   8.670e-12   -11.073   -11.062     0.011     (0)  
   FerricH2PO4+2   8.134e-13   2.933e-13   -12.090   -12.533    -0.443     (0)  
   FerricHPO4+     2.829e-14   2.192e-14   -13.548   -13.659    -0.111     (0)  
Sulfate       5.412e-03
   SulfateO4-2     2.869e-03   1.030e-03    -2.542    -2.987    -0.445     (0)  
   CaSulfateO4     1.580e-03   1.621e-03    -2.801    -2.790     0.011     (0)  
   MgSulfateO4     8.701e-04   8.928e-04    -3.060    -3.049     0.011     (0)  
   NaSulfateO4-    8.415e-05   6.521e-05    -4.075    -4.186    -0.111     (0)  
   KSulfateO4-     4.840e-06   3.750e-06    -5.315    -5.426    -0.111     (0)  
   AmmH4SulfateO4-   4.082e-06   3.164e-06    -5.389    -5.500    -0.111     (0)  
   HSulfateO4-     1.073e-07   8.316e-08    -6.969    -7.080    -0.111     (0)  
   CaHSulfateO4+   1.018e-08   7.887e-09    -7.992    -8.103    -0.111     (0)  
   FerrousSulfateO4   2.148e-10   2.204e-10    -9.668    -9.657     0.011     (0)  
   FerricSulfateO4+   6.558e-13   5.082e-13   -12.183   -12.294    -0.111     (0)  
   Ferric(SulfateO4)2-   1.478e-14   1.145e-14   -13.830   -13.941    -0.111     (0)  
   FerrousHSulfateO4+   1.553e-15   1.203e-15   -14.809   -14.920    -0.111     (0)  
   FerricHSulfateO4+2   3.135e-18   1.130e-18   -17.504   -17.947    -0.443     (0)  
Sulfide       1.170e-03
   H2Sulfide       9.849e-04   1.011e-03    -3.007    -2.995     0.011     (0)  
   HSulfide-       1.848e-04   1.392e-04    -3.733    -3.856    -0.123     (0)  
   Ferrous(HSulfide)2   2.024e-08   2.077e-08    -7.694    -7.683     0.011     (0)  
   Ferrous(HSulfide)3-   4.062e-10   3.148e-10    -9.391    -9.502    -0.111     (0)  
   Sulfide-2       5.581e-11   2.024e-11   -10.253   -10.694    -0.441     (0)  
Threonine     8.942e-06
   Threonine-2     8.939e-06   3.223e-06    -5.049    -5.492    -0.443     (0)  
   H2(Threonine)   2.857e-09   2.931e-09    -8.544    -8.533     0.011     (0)  
   H(Threonine)-   4.880e-10   3.782e-10    -9.312    -9.422    -0.111     (0)  
Tyrosine      8.942e-06
   Tyrosine-2      8.939e-06   3.223e-06    -5.049    -5.492    -0.443     (0)  
   H2(Tyrosine)    2.792e-09   2.865e-09    -8.554    -8.543     0.011     (0)  
   H(Tyrosine)-    5.476e-10   4.243e-10    -9.262    -9.372    -0.111     (0)  

------------------------------Saturation indices-------------------------------

  Phase               SI** log IAP   log K(298 K,   0 atm)

  FixpH            -6.08     -6.08    0.00  H+
  H2(g)             1.85     -1.30   -3.15  H2
  H2O(g)           -1.51     -0.00    1.51  H2O
  Halite           -4.87     -3.29    1.58  NaCl
  Hydroxyapatite    0.00     -3.42   -3.42  Ca5(PO4)3OH
  ORM             805.29    -73.94 -879.23  C5H4O2Amm
  redoxAnhydrite   -0.73     -5.09   -4.36  CaSulfateO4
  redoxAragonite   -0.23     -8.57   -8.34  CaCO3
  redoxCalcite     -0.09     -8.57   -8.48  CaCO3
  redoxCH4(g)      -3.40     -6.26   -2.86  MethaneH4
  redoxCO2(g)      -0.47     -1.94   -1.47  CO2
  redoxDolomite    -0.37    -17.46  -17.09  CaMg(CO3)2
  redoxFe(OH)3(a)  -0.00      4.89    4.89  Ferric(OH)3
  redoxFeS(ppt)    -2.78     -6.70   -3.92  FerrousSulfide
  redoxGoethite     5.89      4.89   -1.00  FerricOOH
  redoxGypsum      -0.51     -5.09   -4.58  CaSulfateO4:2H2O
  redoxH2S(g)      -2.00     -3.00   -1.00  H2Sulfide
  redoxHematite    13.79      9.79   -4.01  Ferric2O3
  redoxJarosite-K  -3.61    -12.82   -9.21  KFerric3(SulfateO4)2(OH)6
  redoxMackinawite  -2.05     -6.70   -4.65  FerrousSulfide
  redoxMelanterite  -9.71    -11.92   -2.21  FerrousSulfateO4:7H2O
  redoxNH3(g)      -8.56     -6.79    1.77  AmmH3
  redoxO2(g)       -1.20     -4.09   -2.89  Ozero2
  redoxPyrite       0.00    -18.48  -18.48  FerrousSulfide2
  redoxSiderite    -4.49    -15.38  -10.89  FerrousCO3
  redoxSulfur      -9.72     -4.84    4.88  Sulfide
  redoxVivianite  -14.79    -50.79  -36.00  Ferrous3(PO4)2:8H2O

**For a gas, SI = log10(fugacity). Fugacity = pressure * phi / 1 atm.
  For ideal gases, phi = 1.

------------------
End of simulation.
------------------

------------------------------------
Reading input data for simulation 4.
------------------------------------

--------------------------------
End of Run after 49.374 Seconds.
--------------------------------

