   Input file: fixp_redox_sw4.phrq
  Output file: fixp_redox_sw4.phrq.out
Database file: ../database/redox.dat

------------------
Reading data base.
------------------

	SOLUTION_MASTER_SPECIES
	SOLUTION_SPECIES
	PHASES
	EXCHANGE_MASTER_SPECIES
	EXCHANGE_SPECIES
	SURFACE_MASTER_SPECIES
	SURFACE_SPECIES
	RATES
	END
------------------------------------
Reading input data for simulation 1.
------------------------------------

	DATABASE ../database/redox.dat
	TITLE  MEND and redox coupling
	CALCULATE_VALUES
	SC_T25
	 start
	 10 sc25 = SC/(1+0.021*(temperature-25))   #in us/cm
	 20 SAVE sc25
	 end
	fsl1    ##more sensitive (green)
	 start
	 10 fsl1 = 1 / (1.0 + exp(1.68 * (log10(CALC_VALUE("SC_T25")/1000)+0.26))) #log(ds/m)
	 40 SAVE fsl1
	 end
	fsl2     ##medium (purple)
	 start
	 10 fsl2 = 1 / (1.0 + exp(2.28 * (log10(CALC_VALUE("SC_T25")/1000)-0.60)))  #log(ds/m)
	 40 SAVE fsl2
	 end
	fsl3     ##medium (red)
	 start
	 10 fsl3 = 1 / (1.0 + exp(2.23 * (log10(CALC_VALUE("SC_T25")/1000)-1.11)))  #log(ds/m)
	 40 SAVE fsl3
	 end
	fsl4    ##more resistant (black)
	 start
	 10 fsl4 = 1 / (1.0 + exp(4.03 * (log10(CALC_VALUE("SC_T25")/1000)-1.78)))  #log(ds/m)
	 40 SAVE fsl4
	 end
	SOLUTION 1    
	units umol/L        #3.774L total volume  ##based on clay fresh system
	pH    7  charge
	temperature 	 25
	water         1.887   #default is 1 kg
	P           5
	Amm         38
	Na          114
	Ca          183
	Cl          133 
	Sulfate     4 
	K           28
	Mg          79
	C(4)        9  
	Nitrate        0
	Ferric       50
	Alanine      52
	Cysteine     52
	Glycine      52
	Glutamine    52
	Threonine    52
	Tyrosine     52
	Ozero        600    redoxO2(g) -0.7
	Methane      1
	Sulfide      0.1
	  SAVE SOLUTION 1
	END
-----
TITLE
-----

  MEND and redox coupling

-------------------------------------------
Beginning of initial solution calculations.
-------------------------------------------

Initial solution 1.	

-----------------------------Solution composition------------------------------

	Elements           Molality       Moles

	Alanine           5.200e-05   9.813e-05
	Amm               3.800e-05   7.171e-05
	C(4)              9.001e-06   1.698e-05
	Ca                1.830e-04   3.453e-04
	Cl                1.330e-04   2.510e-04
	Cysteine          5.200e-05   9.813e-05
	Ferric            5.000e-05   9.436e-05
	Glutamine         5.200e-05   9.813e-05
	Glycine           5.200e-05   9.813e-05
	K                 2.800e-05   5.284e-05
	Methane           1.000e-06   1.887e-06
	Mg                7.901e-05   1.491e-04
	Na                1.140e-04   2.151e-04
	Ozero             5.111e-04   9.645e-04  Equilibrium with redoxO2(g)
	P                 5.000e-06   9.436e-06
	Sulfate           4.000e-06   7.549e-06
	Sulfide           1.000e-07   1.887e-07
	Threonine         5.200e-05   9.813e-05
	Tyrosine          5.200e-05   9.813e-05

----------------------------Description of solution----------------------------

                                       pH  =   6.951      Charge balance
                                       pe  =   4.000    
      Specific Conductance (µS/cm,  25°C)  = 49
                        Activity of water  =   1.000
                 Ionic strength (mol/kgw)  =   1.254e-03
                       Mass of water (kg)  =   1.887e+00
                 Total alkalinity (eq/kg)  =   3.480e-04
                       Total CO2 (mol/kg)  =   9.001e-06
                         Temperature (°C)  =  25.00
                  Electrical balance (eq)  =   1.862e-17
 Percent error, 100*(Cat-|An|)/(Cat+|An|)  =   0.00
                               Iterations  =   8
                                  Total H  = 2.094810e+02
                                  Total O  = 1.047406e+02

----------------------------Distribution of species----------------------------

                                               Log       Log       Log    mole V
   Species          Molality    Activity  Molality  Activity     Gamma   cm³/mol

   H+              1.163e-07   1.120e-07    -6.935    -6.951    -0.016      0.00
   OH-             9.305e-08   8.941e-08    -7.031    -7.049    -0.017     (0)  
   H2O             5.551e+01   1.000e+00     1.744    -0.000     0.000     18.07
Alanine       5.200e-05
   Alanine-2       5.200e-05   4.436e-05    -4.284    -4.353    -0.069     (0)  
   H2(Alanine)     4.121e-09   4.123e-09    -8.385    -8.385     0.000     (0)  
   H(Alanine)-     1.157e-09   1.112e-09    -8.937    -8.954    -0.017     (0)  
Amm           3.800e-05
   AmmH4+          3.782e-05   3.632e-05    -4.422    -4.440    -0.018     (0)  
   AmmH3           1.848e-07   1.848e-07    -6.733    -6.733     0.000     (0)  
   AmmH4SulfateO4-   1.598e-09   1.536e-09    -8.796    -8.814    -0.017     (0)  
C(4)          9.001e-06
   HCO3-           7.227e-06   6.949e-06    -5.141    -5.158    -0.017     (0)  
   CO2             1.749e-06   1.750e-06    -5.757    -5.757     0.000     (0)  
   CaHCO3+         1.441e-08   1.385e-08    -7.841    -7.858    -0.017     (0)  
   MgHCO3+         5.710e-09   5.487e-09    -8.243    -8.261    -0.017     (0)  
   CO3-2           3.404e-09   2.911e-09    -8.468    -8.536    -0.068     (0)  
   CaCO3           7.637e-10   7.639e-10    -9.117    -9.117     0.000     (0)  
   NaHCO3          4.281e-10   4.283e-10    -9.368    -9.368     0.000     (0)  
   MgCO3           1.874e-10   1.874e-10    -9.727    -9.727     0.000     (0)  
   NaCO3-          6.180e-12   5.940e-12   -11.209   -11.226    -0.017     (0)  
Ca            1.830e-04
   Ca+2            1.827e-04   1.562e-04    -3.738    -3.806    -0.068     (0)  
   CaHPO4          1.339e-07   1.339e-07    -6.873    -6.873     0.000     (0)  
   CaSulfateO4     1.023e-07   1.023e-07    -6.990    -6.990     0.000     (0)  
   CaHCO3+         1.441e-08   1.385e-08    -7.841    -7.858    -0.017     (0)  
   CaH2PO4+        1.173e-08   1.127e-08    -7.931    -7.948    -0.017     (0)  
   CaPO4-          2.944e-09   2.829e-09    -8.531    -8.548    -0.017     (0)  
   CaCO3           7.637e-10   7.639e-10    -9.117    -9.117     0.000     (0)  
   CaOH+           2.410e-10   2.316e-10    -9.618    -9.635    -0.017     (0)  
   CaHSulfateO4+   6.984e-14   6.712e-14   -13.156   -13.173    -0.017     (0)  
Cl            1.330e-04
   Cl-             1.330e-04   1.278e-04    -3.876    -3.893    -0.017     (0)  
   FerricCl+2      6.028e-16   5.142e-16   -15.220   -15.289    -0.069     (0)  
   FerricCl2+      3.055e-19   2.936e-19   -18.515   -18.532    -0.017     (0)  
   FerricCl3       3.751e-24   3.752e-24   -23.426   -23.426     0.000     (0)  
Cysteine      5.200e-05
   Cysteine-2      5.197e-05   4.433e-05    -4.284    -4.353    -0.069     (0)  
   H2(Cysteine)    3.348e-08   3.349e-08    -7.475    -7.475     0.000     (0)  
   H(Cysteine)-    2.649e-10   2.546e-10    -9.577    -9.594    -0.017     (0)  
Ferric        5.000e-05
   Ferric(OH)3     2.613e-05   2.614e-05    -4.583    -4.583     0.000     (0)  
   Ferric(OH)2+    2.364e-05   2.272e-05    -4.626    -4.644    -0.017     (0)  
   Ferric(OH)4-    2.215e-07   2.129e-07    -6.655    -6.672    -0.017     (0)  
   FerricOH+2      9.006e-09   7.683e-09    -8.045    -8.114    -0.069     (0)  
   Ferric+3        1.870e-13   1.332e-13   -12.728   -12.875    -0.147     (0)  
   FerricH2PO4+2   1.185e-13   1.011e-13   -12.926   -12.995    -0.069     (0)  
   FerricHPO4+     5.833e-14   5.605e-14   -13.234   -13.251    -0.017     (0)  
   FerricSulfateO4+   4.990e-15   4.795e-15   -14.302   -14.319    -0.017     (0)  
   Ferric2(OH)2+4   3.000e-15   1.589e-15   -14.523   -14.799    -0.276     (0)  
   FerricCl+2      6.028e-16   5.142e-16   -15.220   -15.289    -0.069     (0)  
   Ferric3(OH)4+5   2.036e-17   7.541e-18   -16.691   -17.123    -0.431     (0)  
   Ferric(SulfateO4)2-   3.583e-19   3.444e-19   -18.446   -18.463    -0.017     (0)  
   FerricCl2+      3.055e-19   2.936e-19   -18.515   -18.532    -0.017     (0)  
   FerricHSulfateO4+2   1.685e-21   1.438e-21   -20.773   -20.842    -0.069     (0)  
   FerricCl3       3.751e-24   3.752e-24   -23.426   -23.426     0.000     (0)  
Glutamine     5.200e-05
   Glutamine-2     5.200e-05   4.436e-05    -4.284    -4.353    -0.069     (0)  
   H(Glutamine)-   7.645e-10   7.347e-10    -9.117    -9.134    -0.017     (0)  
   H2(Glutamine)   7.500e-10   7.502e-10    -9.125    -9.125     0.000     (0)  
Glycine       5.200e-05
   Glycine-        5.200e-05   4.997e-05    -4.284    -4.301    -0.017     (0)  
   H2(Glycine)+    2.595e-09   2.494e-09    -8.586    -8.603    -0.017     (0)  
   H(Glycine)      1.224e-09   1.224e-09    -8.912    -8.912     0.000     (0)  
H(0)          1.775e-25
   H2              8.873e-26   8.875e-26   -25.052   -25.052     0.000     (0)  
K             2.800e-05
   K+              2.800e-05   2.691e-05    -4.553    -4.570    -0.017     (0)  
   KSulfateO4-     6.457e-10   6.206e-10    -9.190    -9.207    -0.017     (0)  
   KHPO4-          8.533e-11   8.200e-11   -10.069   -10.086    -0.017     (0)  
   KOH             8.329e-13   8.332e-13   -12.079   -12.079     0.000     (0)  
Methane       1.000e-06
   MethaneH4       1.000e-06   1.000e-06    -6.000    -6.000     0.000     (0)  
Mg            7.901e-05
   Mg+2            7.886e-05   6.748e-05    -4.103    -4.171    -0.068     (0)  
   MgHPO4          7.818e-08   7.820e-08    -7.107    -7.107     0.000     (0)  
   MgSulfateO4     5.192e-08   5.193e-08    -7.285    -7.285     0.000     (0)  
   MgH2PO4+        6.450e-09   6.199e-09    -8.190    -8.208    -0.017     (0)  
   MgHCO3+         5.710e-09   5.487e-09    -8.243    -8.261    -0.017     (0)  
   MgOH+           2.277e-09   2.188e-09    -8.643    -8.660    -0.017     (0)  
   MgPO4-          1.715e-09   1.649e-09    -8.766    -8.783    -0.017     (0)  
   MgCO3           1.874e-10   1.874e-10    -9.727    -9.727     0.000     (0)  
Na            1.140e-04
   Na+             1.140e-04   1.096e-04    -3.943    -3.960    -0.017     (0)  
   NaSulfateO4-    1.876e-09   1.803e-09    -8.727    -8.744    -0.017     (0)  
   NaHCO3          4.281e-10   4.283e-10    -9.368    -9.368     0.000     (0)  
   NaHPO4-         3.475e-10   3.340e-10    -9.459    -9.476    -0.017     (0)  
   NaOH            6.464e-12   6.466e-12   -11.189   -11.189     0.000     (0)  
   NaCO3-          6.180e-12   5.940e-12   -11.209   -11.226    -0.017     (0)  
O(0)          0.000e+00
   O2              0.000e+00   0.000e+00   -42.277   -42.276     0.000     (0)  
Ozero         5.111e-04
   Ozero2          2.556e-04   2.556e-04    -3.592    -3.592     0.000     (0)  
P             5.000e-06
   H2PO4-          2.933e-06   2.819e-06    -5.533    -5.550    -0.017     (0)  
   HPO4-2          1.832e-06   1.563e-06    -5.737    -5.806    -0.069     (0)  
   CaHPO4          1.339e-07   1.339e-07    -6.873    -6.873     0.000     (0)  
   MgHPO4          7.818e-08   7.820e-08    -7.107    -7.107     0.000     (0)  
   CaH2PO4+        1.173e-08   1.127e-08    -7.931    -7.948    -0.017     (0)  
   MgH2PO4+        6.450e-09   6.199e-09    -8.190    -8.208    -0.017     (0)  
   CaPO4-          2.944e-09   2.829e-09    -8.531    -8.548    -0.017     (0)  
   MgPO4-          1.715e-09   1.649e-09    -8.766    -8.783    -0.017     (0)  
   NaHPO4-         3.475e-10   3.340e-10    -9.459    -9.476    -0.017     (0)  
   KHPO4-          8.533e-11   8.200e-11   -10.069   -10.086    -0.017     (0)  
   PO4-3           9.000e-12   6.294e-12   -11.046   -11.201    -0.155     (0)  
   FerricH2PO4+2   1.185e-13   1.011e-13   -12.926   -12.995    -0.069     (0)  
   FerricHPO4+     5.833e-14   5.605e-14   -13.234   -13.251    -0.017     (0)  
Sulfate       4.000e-06
   SulfateO4-2     3.842e-06   3.283e-06    -5.415    -5.484    -0.068     (0)  
   CaSulfateO4     1.023e-07   1.023e-07    -6.990    -6.990     0.000     (0)  
   MgSulfateO4     5.192e-08   5.193e-08    -7.285    -7.285     0.000     (0)  
   NaSulfateO4-    1.876e-09   1.803e-09    -8.727    -8.744    -0.017     (0)  
   AmmH4SulfateO4-   1.598e-09   1.536e-09    -8.796    -8.814    -0.017     (0)  
   KSulfateO4-     6.457e-10   6.206e-10    -9.190    -9.207    -0.017     (0)  
   HSulfateO4-     3.718e-11   3.573e-11   -10.430   -10.447    -0.017     (0)  
   CaHSulfateO4+   6.984e-14   6.712e-14   -13.156   -13.173    -0.017     (0)  
   FerricSulfateO4+   4.990e-15   4.795e-15   -14.302   -14.319    -0.017     (0)  
   Ferric(SulfateO4)2-   3.583e-19   3.444e-19   -18.446   -18.463    -0.017     (0)  
   FerricHSulfateO4+2   1.685e-21   1.438e-21   -20.773   -20.842    -0.069     (0)  
Sulfide       1.000e-07
   HSulfide-       5.154e-08   4.952e-08    -7.288    -7.305    -0.017     (0)  
   H2Sulfide       4.847e-08   4.848e-08    -7.315    -7.314     0.000     (0)  
   Sulfide-2       6.251e-14   5.342e-14   -13.204   -13.272    -0.068     (0)  
Threonine     5.200e-05
   Threonine-2     5.200e-05   4.436e-05    -4.284    -4.353    -0.069     (0)  
   H2(Threonine)   7.330e-10   7.332e-10    -9.135    -9.135     0.000     (0)  
   H(Threonine)-   7.301e-10   7.016e-10    -9.137    -9.154    -0.017     (0)  
Tyrosine      5.200e-05
   Tyrosine-2      5.200e-05   4.436e-05    -4.284    -4.353    -0.069     (0)  
   H(Tyrosine)-    8.191e-10   7.872e-10    -9.087    -9.104    -0.017     (0)  
   H2(Tyrosine)    7.163e-10   7.165e-10    -9.145    -9.145     0.000     (0)  

------------------------------Saturation indices-------------------------------

  Phase               SI** log IAP   log K(298 K,   1 atm)

  FixpH            -6.95     -6.95    0.00  H+
  H2(g)           -21.90    -25.05   -3.15  H2
  H2O(g)           -1.51     -0.00    1.51  H2O
  Halite           -9.44     -7.85    1.58  NaCl
  Hydroxyapatite   -5.22     -8.65   -3.42  Ca5(PO4)3OH
  ORM             829.47    -49.76 -879.23  C5H4O2Amm
  redoxAnhydrite   -4.93     -9.29   -4.36  CaSulfateO4
  redoxAragonite   -4.01    -12.34   -8.34  CaCO3
  redoxCalcite     -3.86    -12.34   -8.48  CaCO3
  redoxCH4(g)      -3.14     -6.00   -2.86  MethaneH4
  redoxCO2(g)      -4.29     -5.76   -1.47  CO2
  redoxDolomite    -7.96    -25.05  -17.09  CaMg(CO3)2
  redoxFe(OH)3(a)   3.09      7.98    4.89  Ferric(OH)3
  redoxGoethite     8.98      7.98   -1.00  FerricOOH
  redoxGypsum      -4.71     -9.29   -4.58  CaSulfateO4:2H2O
  redoxH2S(g)      -6.32     -7.31   -1.00  H2Sulfide
  redoxHematite    19.96     15.95   -4.01  Ferric2O3
  redoxJarosite-K  -3.25    -12.46   -9.21  KFerric3(SulfateO4)2(OH)6
  redoxNH3(g)      -8.50     -6.73    1.77  AmmH3
  redoxO2(g)       -0.70     -3.59   -2.89  Ozero2
  redoxSulfur       9.71     14.59    4.88  Sulfide

**For a gas, SI = log10(fugacity). Fugacity = pressure * phi / 1 atm.
  For ideal gases, phi = 1.

------------------
End of simulation.
------------------

------------------------------------
Reading input data for simulation 2.
------------------------------------

	GAS_PHASE 1 fixed volume gas phase
	  fixed_volume
	  volume	   0.9  #(L)  calculate air pore space
	  temperature 	 25.0
	  redoxO2(g)   0.29
	  redoxCH4(g)  0.0
	  redoxCO2(g)  0.000316
	  SAVE GAS_PHASE 1
	END
------------------
End of simulation.
------------------

------------------------------------
Reading input data for simulation 3.
------------------------------------

	USE SOLUTION 1
	USE GAS_PHASE 1
	EXCHANGE_SPECIES
	 X- = X-
	 log_k 0     #semicolon is logical end of line
	 X- + AmmH4+ = AmmH4X
	  log_k  0.25   #define the half-reactions of ion change
	 2X- + Ca+2  = CaX2
	    log_k  0.4    $logK's relative 
	 2X- + Mg+2  = MgX2
	    log_k  0.5
	 X- + Na+  = NaX
	      log_k  0.0
	 X- + K+  = KX
	       log_k  0.2
	EXCHANGE 1   #exchanger in equilibirium 
	  X         16  #exchanger amount in mol
	  equilibrate with solution 1
	  exchange_gammas   true
	EQUILIBRIUM_PHASES 1
	  redoxO2(g)       -1.2  1     #fixed partial pressure approach
	  redoxCalcite      0  0.001     #CaCo3
	  redoxFeS(ppt)     0  0.001     #FeS
	  Hydroxyapatite    0  0.001     #Ca5(PO4)3OH
	  redoxPyrite       0  0.001     #FeS2
	  redoxFe(OH)3(a)   0  2   
	SURFACE 1
	 Hfo_wOH 2e-4  600  280  #site density (per nm2), SSA (m2/g), gram
	 Hfo_sOH 5e-6
	donnan 1e-8   #defuse layer thickness
	  H_a   3.837E-02  3.417E+04     80  ##gram of SOM for exchange
	  H_b   3.837E-02
	 H_c   3.837E-02
	 H_d  3.837E-02
	  H_e   1.919E-02
	 H_f   1.919E-02
	 H_g  1.919E-02
	 H_h  1.919E-02
	  H_ab  6.378E-02
	 H_ad  6.378E-02
	 H_af  6.378E-02
	 H_ah  6.378E-02
	  H_bc  6.378E-02
	 H_be  6.378E-02
	 H_bg  6.378E-05
	 H_cd  6.378E-05
	  H_cf  6.378E-02
	 H_ch  6.378E-02
	 H_de  6.378E-05
	 H_dg  6.378E-05
	 equilibrate with solution 1
	USE SOLUTION 1
	KINETICS  Decomposition  ##in mgC per g soil, redox reaction stoichiometry based on per biomassC
	cvode
	BA
	   m0   0.52
	   formula CH2O 0.0  
	   parms 1.04 0.25 0.001 0.4 0.02  #parm(1)=Vd, parm(2)=Kd, parm(3)=PEP, parm(4)=CUE, parm(5)=kb
	OAC
	   m0  0.001
	   formula CH2O 0.0   
	   parms  0.2  0.25
	Aero
	   formula CH2O 0.0   Ozero2  1.44   HCO3 -1.44  #C 2.44
	   parms  4   0.5  0.05   #Vmax, Koc, Ko2
	SulR
	   formula CH2O 0.0   SulfateO4-2  4.5   HSulfide-  -4.5  HCO3 -9    #C 10
	   parms  0.5   0.1   4   #Vmax, Koc, Kso4
	Meth
	   formula CH2O 0.0     MethaneH4 -20.24  HCO3 20.24   #C 41.48
	   parms  0.25   0.6  0.1   #Vmax, Koc, KI_O2
	POM
	   m0   4.71
	   formula CH2O 0.0  
	   parms 33.8  50  0  0.5   #vp1, kp1, Ip1, gD-fraction of dead BA to D
	MOM
	   m0   15.9
	   formula CH2O 0.0
	   parms 0.2  250 0.5   #vm, km, fD- fraction of decomposed p1/p2 to D
	DOM
	   m0   0.48
	   formula CH2O 0.0
	   parms  0.5  0.25  0
	QOM
	   m0   1.767
	   formula CH2O 0.0
	   parms 0.006 0.5  0.001   #adsorption constant, Qmax, desorption constant
	EP
	   m0   0.052
	   formula CH2O 0.0
	   parms  0.001
	EM
	   m0   0.052
	   formula CH2O 0.0
	   parms  0.001
	respiration
	   m0   0
	   formula CH2O 0.0 
	   parms  0.4
	Tot
	   m0   23.484
	   formula CH2O 0.0
	Salt  ##saltwater ion stoichiometry
	   m0   0.001
	   formula  CH2O 0.0   Cl-  -22  Sulfate  -4   Na+  -25   K+  -1    Ca+2  -2  Mg+2  -4   HCO3  -3  Nitrate -5 
	   parms 0.01  ## mol per gram soil per day
	Caero
	   m0   0
	   formula CH2O 0.0
	Csulr
	   m0   0
	   formula CH2O 0.0
	Cmeth
	   m0   0
	   formula CH2O 0.0
	   steps 100 in 100 steps #day
	  INCREMENTAL_REACTIONS true
	RATES
	BA
	   start
	    10 mDOM= kin("DOM")*0.8
	    20 bio = kin("BA")
	    30 uptake= parm(1)* bio * mDOM/(parm(2)+mDOM)   #parm(1)=Vd, parm(2)=Kd
	    40 put(uptake, 1) #microbil uptake flux                                      
	    50 decay=(1-parm(3)*2)*bio*parm(5)     #parm(3)=pEP=pEM (exoemzyme production rate); 0.1*Vd=biomass decay rate
	    60 put(decay, 2)                                           ##maintenance respiration
	    70 pexo = parm(3)*bio   #exoenzyme production enzyme production rate=0.1*Vd
	    80 put(pexo, 3)                                             ##mortality
	    90 rate = get(1)*parm(4)-get(2)-get(3)-get(3)+get(11)*get(11)/(get(11)+get(12)+get(13))+get(12)*get(12)/(get(11)+get(12)+get(13))+get(13)*get(13)/(get(11)+get(12)+get(13)) #parm(4)=CUE
	    100 save -rate * time 
	   end
	OAC
	   start
	    10 mDOM= kin("DOM")
	    20 rate = parm(1)* mDOM+parm(2)* get(2)-get(11)*2.44*get(11)/(get(11)+get(12)+get(13))-get(12)*10*get(12)/(get(11)+get(12)+get(13))-get(13)*41.48*get(13)/(get(11)+get(12)+get(13))  #C stoichiometry for redox reactions
	    30 put(rate, 14)
	    100 save -rate * time 
	   end
	Aero
	  start
	   10 mDOM= kin("OAC")/12
	   20 bio = kin("BA")/12
	   30 DO= mol("Ozero2")*1000
	   40 donor = mDOM/(parm(2)+mDOM)
	   50 accp = DO/(parm(3)+DO)
	   60 rate = parm(1)* bio * donor * accp
	   70 put(rate, 11)
	   80 final = rate*get(11)/(get(11)+get(12)+get(13))
	  100 save -final* time
	  end
	SulR
	  start
	   10 mDOM= kin("OAC")/12
	   20 bio = 0.6*kin("BA")/12
	   30 DO = mol("Ozero2")*1000
	   40 SO = mol("SulfateO4-2")*1000
	   50 donor = mDOM/(parm(2)+mDOM)
	   60 acc = SO/(parm(3)+SO)
	   70 rate = parm(1)* bio * donor * acc
	   80 put(rate, 12)
	   90 final = rate*get (12)/(get(11)+get(12)+get(13))
	  100 save -final * time
	  end
	Meth
	  start
	   10 mDOM= kin("OAC")/12
	   11 if(kin("OAC")<= 0.15) then mDOM=0
	   20 bio = 0.2*kin("BA")/12
	   30 DO = mol("Ozero2")*1000
	   50 donor = mDOM/(parm(2)+mDOM)
	   60 inhib = parm(3)/(DO+parm(3))
	   70 rate =  parm(1)* bio * donor 
	   80 put(rate, 13)
	   90 final = rate*get (13)/(get(11)+get(12)+get(13))
	  100 save -final * time
	  end
	POM
	   start
	    10 mPOM = kin("POM")
	    20 ep = kin("EP")
	    30 deco = parm(1) * ep * mPOM/(parm(2)+mPOM) # parm(1)=Vp, parm(2)=Kp
	    40 put (deco, 4)  #POM decomposition
	    50 rate = (1-parm(4))*get(2)-get(4)  #parm(3)=input, parm(4)=gD, fraction of decayed biomass C going to DOM pool
	    100 save -rate * time
	   end
	MOM
	   start
	    10 mMOM = kin("MOM")
	    20 em = kin("EM")
	    30 flux = parm(1) * em * mMOM /(parm(2)+ mMOM) # parm(1)=VM, parm(2)=KM
	    40 put(flux,5)  #MOM decomposition flux
	    50 rate = (1-parm(3))*get(4)-get(5)  #parm(3)=fD_fraction of decomposed P to D
	    100 save -rate*time
	   end
	DOM
	   start
	    10 rate = (1-parm(1))*get(4)+parm(2)* get(2)+get(5)+(get(8)+get(9))-get(1)-(get(6)-get(7))-get(14)
	    100 save -rate* time
	   end
	QOM
	   start
	    10 mQOM = kin("QOM")
	    20 D = kin("DOM")
	    30 flux1 = parm(1) * (1-mQOM/parm(2))* D #adsorption flux, parm(1)=adsorption constant, parm(2)=Qmax
	    40 put(flux1,6)  #adsorption flux
	    50 flux2 = parm(3) * (mQOM/parm(2)) #parm(3)=desorption constant, parm(2)=Qmax
	    60 put(flux2,7)  #desorption flux
	    70 rate = get(6)-get(7)
	    100 save -rate * time
	   end
	EP
	   start
	    10 ep = kin("EP")
	    20 flux1 = parm(1)*ep #enzyme decay
	    30 put (flux1,8)
	    40 rate = get(3)-get(8)
	    100 save -rate * time
	   end
	EM
	   start
	    10 em = kin("EM")
	    20 flux1= parm(1)* em
	    30 put (flux1,9)
	    40 rate = get(3)-get(9)
	    100  save -rate * time
	   end
	respiration
	   start
	    10 rate = (1- parm(1))*get(1)+(get(11)*1.44*get(11)/(get(11)+get(12)+get(13))+get(12)*9*get(12)/(get(11)+get(12)+get(13))-get(13)*20.24*get(13)/(get(11)+get(12)+get(13)))*12 #parm(1)=CUE
	    20 put (rate, 10)
	    30 save -rate * time
	   end
	Tot
	   start
	    10 rate = -get(10)-(GAS('redoxCH4(g)')+tot('CH4'))*12
	    20 save -rate * time
	   end
	Salt
	   start
	    10 salt=kin("salt")
	    20 rate = parm(1)*(0.10-salt)   ## The incoming concentration is important
	    30 save -rate * time
	   end
	Caero
	   start
	    10 rate = get(11)*2.44*get (11)/(get(11)+get(12)+get(13))
	    30 save -rate * time
	   end
	Csulr
	   start
	    10 rate = get(12)*10*get (12)/(get(11)+get(12)+get(13))
	    30 save -rate * time
	   end
	Cmeth
	   start
	    10 rate = get(13)*41.48*get (13)/(get(11)+get(12)+get(13))
	    30 save -rate * time
	   end
	SELECTED_OUTPUT
	  reset false
	   pe true
	  file fixp_redox_sw4.txt
	USER_PUNCH
	  start
	  heading Time pH  Ozero HS CH4 CO2g CO2 SC  fsl1  fsl2  fsl3  fsl4 POM MOM QOM DOM BA EP EM IC Total OrgAcid Aero SulR Meth Caero Csulr Cmeth Na  K  Ca  Mg  PO4  Cl  SO4 NH4 HCO3 FeS Pyrite 
	  10 PUNCH SIM_TIME
	  20 PUNCH -la("H+")
	  30 PUNCH mol("Ozero2")  tot('Sulfide')
	  40 PUNCH GAS('redoxCH4(g)')+tot('CH4')  GAS('redoxCO2(g)')  tot('C(4)')
	  50 PUNCH CALC_VALUE ("SC_T25")
	  60 PUNCH CALC_VALUE("fsl1")  CALC_VALUE("fsl2")  CALC_VALUE("fsl3")  CALC_VALUE("fsl4")
	  70 PUNCH kin('POM') kin('MOM') kin('QOM') kin('DOM') kin('BA') kin('EP') kin('EM') 
	  80 PUNCH kin('respiration') kin("Tot") kin('OAC') kin('Aero')  kin('SulR')  kin('Meth')
	  90 PUNCH kin('Caero') kin('Csulr') kin('Cmeth')
	  100 PUNCH tot("Na")  tot("K")  mol("Ca+2")  tot("Mg") tot("P")  tot("Cl")  tot("Sulfate") tot ("Amm")  tot("C(4)")
	  110 PUNCH equi("redoxFeS(ppt)")  equi("redoxPyrite")
	  end
	END
-------------------------------------------------------
Beginning of initial exchange-composition calculations.
-------------------------------------------------------

Exchange 1.	

X                1.600e+01 mol

	                               Equiv-    Equivalent      Log 
	Species             Moles      alents      Fraction     Gamma

	CaX2              5.136e+00   1.027e+01   6.421e-01     0.000
	MgX2              2.793e+00   5.586e+00   3.491e-01     0.000
	NaX               7.092e-02   7.092e-02   4.433e-03     0.000
	AmmH4X            4.180e-02   4.180e-02   2.612e-03     0.000
	KX                2.760e-02   2.760e-02   1.725e-03     0.000
	HX                7.524e-04   7.524e-04   4.703e-05    -0.016

------------------------------------------------------
Beginning of initial surface-composition calculations.
------------------------------------------------------

Surface 1.	

Diffuse Double Layer Surface-Complexation Model

H             
	  1.144e-09  Surface + diffuse layer charge, eq
	 -5.139e-01  Surface charge, eq
	 -1.814e-02  sigma, C/m²
	 -1.120e-01  psi, V
	  4.360e+00  -F*psi/RT
	  7.824e+01  exp(-F*psi/RT)
	  3.417e+04  specific area, m²/g
	  2.734e+06  m² for   8.000e+01 g

	Water in diffuse layer: 2.734e+01 kg, 94.2% of total DDL-water.

	Total moles in diffuse layer (excluding water), Donnan calculation.
	Donnan Layer potential, psi_DL = -4.521e-02 V.
	Boltzmann factor, exp(-psi_DL * F / RT) = 5.811e+00 (= c_DL / c_free if z is +1).

	Element       	     Moles
	Alanine       	  4.2219e-05
	Amm           	  6.0117e-03
	C             	  8.5044e-05
	Ca            	  1.6867e-01
	Cl            	  6.2575e-04
	Cysteine      	  4.2994e-05
	Ferric        	  4.4787e-03
	Glutamine     	  4.2128e-05
	Glycine       	  2.4508e-04
	H             	  3.3920e-02
	K             	  4.4476e-03
	Methane       	  2.7338e-05
	Mg            	  7.2787e-02
	Na            	  1.8108e-02
	O             	  9.9991e-03
	Ozero         	  1.3973e-02
	P             	  2.3987e-05
	Sulfate       	  7.3458e-06
	Sulfide       	  1.5674e-06
	Threonine     	  4.2127e-05
	Tyrosine      	  4.2127e-05

H_a           
	  3.837e-02  moles
	                                   Mole                     Log
	Species               Moles    Fraction    Molality    Molality

	H_a-              3.718e-02       0.969   1.971e-02      -1.705
	H_aCa+            8.730e-04       0.023   4.626e-04      -3.335
	H_aMg+            2.995e-04       0.008   1.587e-04      -3.799
	H_aH              1.267e-05       0.000   6.716e-06      -5.173

H_ab          
	  6.378e-02  moles
	                                   Mole                     Log
	Species               Moles    Fraction    Molality    Molality

	H_ab-2            6.291e-02       0.986   3.334e-02      -1.477
	H_abCa            4.670e-04       0.007   2.475e-04      -3.606
	H_abH-            2.762e-04       0.004   1.464e-04      -3.835
	H_abMg            1.273e-04       0.002   6.745e-05      -4.171
	H_abH2            9.414e-08       0.000   4.989e-08      -7.302

H_ad          
	  6.378e-02  moles
	                                   Mole                     Log
	Species               Moles    Fraction    Molality    Molality

	H_adCa            2.400e-02       0.376   1.272e-02      -1.896
	H_ad-2            1.904e-02       0.298   1.009e-02      -1.996
	H_adH-            1.419e-02       0.223   7.522e-03      -2.124
	H_adMg            6.541e-03       0.103   3.467e-03      -2.460
	H_adH2            4.838e-06       0.000   2.564e-06      -5.591

H_af          
	  6.378e-02  moles
	                                   Mole                     Log
	Species               Moles    Fraction    Molality    Molality

	H_afH-            5.540e-02       0.869   2.936e-02      -1.532
	H_afCa            8.348e-03       0.131   4.424e-03      -2.354
	H_afH2            1.888e-05       0.000   1.001e-05      -5.000
	H_af-2            1.205e-05       0.000   6.385e-06      -5.195
	H_afMg            3.864e-06       0.000   2.048e-06      -5.689

H_ah          
	  6.378e-02  moles
	                                   Mole                     Log
	Species               Moles    Fraction    Molality    Molality

	H_ahH-            6.374e-02       0.999   3.378e-02      -1.471
	H_ahH2            2.172e-05       0.000   1.151e-05      -4.939
	H_ahCa            1.708e-05       0.000   9.052e-06      -5.043
	H_ahMg            4.446e-06       0.000   2.356e-06      -5.628
	H_ah-2            2.896e-09       0.000   1.535e-09      -8.814

H_b           
	  3.837e-02  moles
	                                   Mole                     Log
	Species               Moles    Fraction    Molality    Molality

	H_b-              2.720e-02       0.709   1.441e-02      -1.841
	H_bCa+            8.227e-03       0.214   4.360e-03      -2.361
	H_bMg+            2.823e-03       0.074   1.496e-03      -2.825
	H_bH              1.194e-04       0.003   6.329e-05      -4.199

H_bc          
	  6.378e-02  moles
	                                   Mole                     Log
	Species               Moles    Fraction    Molality    Molality

	H_bcCa            3.020e-02       0.474   1.601e-02      -1.796
	H_bc-2            2.395e-02       0.376   1.269e-02      -1.896
	H_bcMg            8.231e-03       0.129   4.362e-03      -2.360
	H_bcH-            1.386e-03       0.022   7.348e-04      -3.134
	H_bcH2            6.088e-06       0.000   3.226e-06      -5.491

H_be          
	  6.378e-02  moles
	                                   Mole                     Log
	Species               Moles    Fraction    Molality    Molality

	H_beH-            6.230e-02       0.977   3.301e-02      -1.481
	H_be-2            9.374e-04       0.015   4.968e-04      -3.304
	H_beH2            2.735e-04       0.004   1.450e-04      -3.839
	H_beCa            2.151e-04       0.003   1.140e-04      -3.943
	H_beMg            5.598e-05       0.001   2.966e-05      -4.528

H_bg          
	  6.378e-05  moles
	                                   Mole                     Log
	Species               Moles    Fraction    Molality    Molality

	H_bgH-            6.323e-05       0.991   3.351e-05      -4.475
	H_bgH2            2.776e-07       0.004   1.471e-07      -6.832
	H_bgCa            2.183e-07       0.003   1.157e-07      -6.937
	H_bgMg            5.681e-08       0.001   3.011e-08      -7.521
	H_bg-2            1.988e-10       0.000   1.053e-10      -9.977

H_c           
	  3.837e-02  moles
	                                   Mole                     Log
	Species               Moles    Fraction    Molality    Molality

	H_cCa+            2.386e-02       0.622   1.264e-02      -1.898
	H_cMg+            8.185e-03       0.213   4.337e-03      -2.363
	H_c-              5.983e-03       0.156   3.171e-03      -2.499
	H_cH              3.463e-04       0.009   1.835e-04      -3.736

H_cd          
	  6.378e-05  moles
	                                   Mole                     Log
	Species               Moles    Fraction    Molality    Molality

	H_cdCa            4.979e-05       0.781   2.639e-05      -4.579
	H_cdMg            1.357e-05       0.213   7.192e-06      -5.143
	H_cd-2            2.326e-07       0.004   1.232e-07      -6.909
	H_cdH-            1.734e-07       0.003   9.189e-08      -7.037
	H_cdH2            1.004e-08       0.000   5.319e-09      -8.274

H_cf          
	  6.378e-02  moles
	                                   Mole                     Log
	Species               Moles    Fraction    Molality    Molality

	H_cfH-            5.718e-02       0.896   3.030e-02      -1.519
	H_cfH2            3.309e-03       0.052   1.754e-03      -2.756
	H_cfCa            2.602e-03       0.041   1.379e-03      -2.860
	H_cfMg            6.773e-04       0.011   3.589e-04      -3.445
	H_cf-2            1.244e-05       0.000   6.591e-06      -5.181

H_ch          
	  6.378e-02  moles
	                                   Mole                     Log
	Species               Moles    Fraction    Molality    Molality

	H_chH-            5.719e-02       0.897   3.031e-02      -1.518
	H_chH2            3.310e-03       0.052   1.754e-03      -2.756
	H_chCa            2.603e-03       0.041   1.379e-03      -2.860
	H_chMg            6.774e-04       0.011   3.590e-04      -3.445
	H_ch-2            2.599e-09       0.000   1.377e-09      -8.861

H_d           
	  3.837e-02  moles
	                                   Mole                     Log
	Species               Moles    Fraction    Molality    Molality

	H_dCa+            2.786e-02       0.726   1.477e-02      -1.831
	H_dMg+            9.560e-03       0.249   5.066e-03      -2.295
	H_d-              5.425e-04       0.014   2.875e-04      -3.541
	H_dH              4.045e-04       0.011   2.144e-04      -3.669

H_de          
	  6.378e-05  moles
	                                   Mole                     Log
	Species               Moles    Fraction    Molality    Molality

	H_deH-            2.552e-05       0.400   1.352e-05      -4.869
	H_deH2            1.903e-05       0.298   1.008e-05      -4.996
	H_deCa            1.496e-05       0.235   7.928e-06      -5.101
	H_deMg            3.894e-06       0.061   2.063e-06      -5.685
	H_de-2            3.840e-07       0.006   2.035e-07      -6.691

H_dg          
	  6.378e-05  moles
	                                   Mole                     Log
	Species               Moles    Fraction    Molality    Molality

	H_dgH-            2.567e-05       0.402   1.360e-05      -4.866
	H_dgH2            1.914e-05       0.300   1.014e-05      -4.994
	H_dgCa            1.505e-05       0.236   7.976e-06      -5.098
	H_dgMg            3.917e-06       0.061   2.076e-06      -5.683
	H_dg-2            8.071e-11       0.000   4.277e-11     -10.369

H_e           
	  1.919e-02  moles
	                                   Mole                     Log
	Species               Moles    Fraction    Molality    Molality

	H_eH              1.863e-02       0.971   9.875e-03      -2.005
	H_e-              2.804e-04       0.015   1.486e-04      -3.828
	H_eCa+            2.082e-04       0.011   1.103e-04      -3.957
	H_eMg+            6.666e-05       0.003   3.533e-05      -4.452

H_f           
	  1.919e-02  moles
	                                   Mole                     Log
	Species               Moles    Fraction    Molality    Molality

	H_fH              1.891e-02       0.985   1.002e-02      -1.999
	H_fCa+            2.112e-04       0.011   1.119e-04      -3.951
	H_fMg+            6.763e-05       0.004   3.584e-05      -4.446
	H_f-              4.112e-06       0.000   2.179e-06      -5.662

H_g           
	  1.919e-02  moles
	                                   Mole                     Log
	Species               Moles    Fraction    Molality    Molality

	H_gH              1.891e-02       0.985   1.002e-02      -1.999
	H_gCa+            2.113e-04       0.011   1.120e-04      -3.951
	H_gMg+            6.765e-05       0.004   3.585e-05      -4.446
	H_g-              5.945e-08       0.000   3.151e-08      -7.502

H_h           
	  1.919e-02  moles
	                                   Mole                     Log
	Species               Moles    Fraction    Molality    Molality

	H_hH              1.891e-02       0.985   1.002e-02      -1.999
	H_hCa+            2.113e-04       0.011   1.120e-04      -3.951
	H_hMg+            6.765e-05       0.004   3.585e-05      -4.446
	H_h-              8.594e-10       0.000   4.554e-10      -9.342

Hfo           
	 -9.038e-14  Surface + diffuse layer charge, eq
	 -7.866e-06  Surface charge, eq
	 -4.518e-06  sigma, C/m²
	 -5.587e-05  psi, V
	  2.175e-03  -F*psi/RT
	  1.002e+00  exp(-F*psi/RT)
	  6.000e+02  specific area, m²/g
	  1.680e+05  m² for   2.800e+02 g

	Water in diffuse layer: 1.680e+00 kg,  5.8% of total DDL-water.

	Total moles in diffuse layer (excluding water), Donnan calculation.
	Donnan Layer potential, psi_DL = -4.796e-05 V.
	Boltzmann factor, exp(-psi_DL * F / RT) = 1.002e+00 (= c_DL / c_free if z is +1).

	Element       	     Moles
	Alanine       	  8.7041e-05
	Amm           	  6.3963e-05
	C             	  1.5098e-05
	Ca            	  3.0861e-04
	Cl            	  2.2304e-04
	Cysteine      	  8.7041e-05
	Ferric        	  8.4079e-05
	Glutamine     	  8.7041e-05
	Glycine       	  8.7203e-05
	H             	  5.0128e-04
	K             	  4.7131e-05
	Methane       	  1.6801e-06
	Mg            	  1.3322e-04
	Na            	  1.9189e-04
	O             	  3.1561e-04
	Ozero         	  8.5873e-04
	P             	  8.3800e-06
	Sulfate       	  6.6964e-06
	Sulfide       	  1.6785e-07
	Threonine     	  8.7041e-05
	Tyrosine      	  8.7041e-05

Hfo_s         
	  5.000e-06  moles
	                                   Mole                     Log
	Species               Moles    Fraction    Molality    Molality

	Hfo_sOHCa+2       4.104e-06       0.821   2.175e-06      -5.663
	Hfo_sOH2+         6.131e-07       0.123   3.249e-07      -6.488
	Hfo_sOH           2.802e-07       0.056   1.485e-07      -6.828
	Hfo_sO-           2.934e-09       0.001   1.555e-09      -8.808

Hfo_w         
	  2.000e-04  moles
	                                   Mole                     Log
	Species               Moles    Fraction    Molality    Molality

	Hfo_wOH2+         7.692e-05       0.385   4.076e-05      -4.390
	Hfo_wHPO4-        6.795e-05       0.340   3.601e-05      -4.444
	Hfo_wOH           3.516e-05       0.176   1.863e-05      -4.730
	Hfo_wPO4-2        1.295e-05       0.065   6.861e-06      -5.164
	Hfo_wH2PO4        6.056e-06       0.030   3.209e-06      -5.494
	Hfo_wOMg+         5.334e-07       0.003   2.827e-07      -6.549
	Hfo_wO-           3.681e-07       0.002   1.951e-07      -6.710
	Hfo_wOCa+         6.945e-08       0.000   3.680e-08      -7.434
	Hfo_wSulfateO4-   7.769e-10       0.000   4.117e-10      -9.385
	Hfo_wOHSulfateO4-2   7.085e-10       0.000   3.755e-10      -9.425

-----------------------------------------
Beginning of batch-reaction calculations.
-----------------------------------------

Reaction step 1.

WARNING: Zero divide in BASIC line
 90  rate = get(1)*parm(4)-get(2)-get(3)-get(3)+get(11)*get(11)/(get(11)+get(12)+get(13))+get(12)*get(12)/(get(11)+get(12)+get(13))+get(13)*get(13)/(get(11)+get(12)+get(13)).
Value set to zero.
WARNING: Zero divide in BASIC line
 90  rate = get(1)*parm(4)-get(2)-get(3)-get(3)+get(11)*get(11)/(get(11)+get(12)+get(13))+get(12)*get(12)/(get(11)+get(12)+get(13))+get(13)*get(13)/(get(11)+get(12)+get(13)).
Value set to zero.
WARNING: Zero divide in BASIC line
 90  rate = get(1)*parm(4)-get(2)-get(3)-get(3)+get(11)*get(11)/(get(11)+get(12)+get(13))+get(12)*get(12)/(get(11)+get(12)+get(13))+get(13)*get(13)/(get(11)+get(12)+get(13)).
Value set to zero.
WARNING: Zero divide in BASIC line
 20  rate = parm(1)* mDOM+parm(2)* get(2)-get(11)*2.44*get(11)/(get(11)+get(12)+get(13))-get(12)*10*get(12)/(get(11)+get(12)+get(13))-get(13)*41.48*get(13)/(get(11)+get(12)+get(13)).
Value set to zero.
WARNING: Zero divide in BASIC line
 20  rate = parm(1)* mDOM+parm(2)* get(2)-get(11)*2.44*get(11)/(get(11)+get(12)+get(13))-get(12)*10*get(12)/(get(11)+get(12)+get(13))-get(13)*41.48*get(13)/(get(11)+get(12)+get(13)).
Value set to zero.
WARNING: Zero divide in BASIC line
 20  rate = parm(1)* mDOM+parm(2)* get(2)-get(11)*2.44*get(11)/(get(11)+get(12)+get(13))-get(12)*10*get(12)/(get(11)+get(12)+get(13))-get(13)*41.48*get(13)/(get(11)+get(12)+get(13)).
Value set to zero.
Using solution 1.	
Using exchange 1.	Exchange assemblage after simulation 3.
Using surface 1.	
Using pure phase assemblage 1.	
Using gas phase 1.	fixed volume gas phase
Using kinetics 1.	Decomposition  

Kinetics 1.	Decomposition  

	Time step: 1 seconds  (Incremented time: 1 seconds)

	Rate name       Delta Moles Total Moles   Reactant        Coefficient

	BA                1.084e-01   6.284e-01   CH2O                      0
	OAC               6.681e-02   6.781e-02   CH2O                      0
	Aero              7.679e-04   1.001e+00   CH2O                      0
	                                          HCO3                  -1.44
	                                          Ozero2                 1.44
	SulR              8.728e-07   1.000e+00   CH2O                      0
	                                          HCO3                     -9
	                                          HSulfide-              -4.5
	                                          SulfateO4-2             4.5
	Meth             -0.000e+00   1.000e+00   CH2O                      0
	                                          HCO3                  20.24
	                                          MethaneH4            -20.24
	POM              -1.441e-01   4.566e+00   CH2O                      0
	MOM               7.433e-02   1.597e+01   CH2O                      0
	DOM              -2.806e-01   1.994e-01   CH2O                      0
	QOM              -8.513e-03   1.758e+00   CH2O                      0
	EP                5.245e-04   5.252e-02   CH2O                      0
	EM                5.245e-04   5.252e-02   CH2O                      0
	respiration       1.939e-01   1.939e-01   CH2O                      0
	Tot              -1.940e-01   2.329e+01   CH2O                      0
	Salt              9.851e-04   1.985e-03   CH2O                      0
	                                          Ca+2                     -2
	                                          Cl-                     -22
	                                          HCO3                     -3
	                                          K+                       -1
	                                          Mg+2                     -4
	                                          Na+                     -25
	                                          Nitrate                  -5
	                                          Sulfate                  -4
	Caero             1.874e-03   1.874e-03   CH2O                      0
	Csulr             8.728e-06   8.728e-06   CH2O                      0
	Cmeth            -0.000e+00   0.000e+00   CH2O                      0

-----------------------------------Gas phase-----------------------------------

Total pressure:  0.07      atmospheres 
    Gas volume:   9.00e-01 liters
  Molar volume:   3.72e+02 liters/mole

                                                        Moles in gas
                                            ----------------------------------
Component                log P           P     Initial       Final       Delta

redoxCH4(g)              -3.41   3.893e-04   0.000e+00   1.432e-05   1.432e-05
redoxCO2(g)              -2.63   2.330e-03   1.162e-05   8.570e-05   7.407e-05
redoxO2(g)               -1.20   6.310e-02   1.067e-02   2.321e-03  -8.347e-03

-------------------------------Phase assemblage--------------------------------

                                                      Moles in assemblage
Phase               SI  log IAP  log K(T, P)   Initial       Final       Delta

Hydroxyapatite    0.00    -3.42     -3.42    1.000e-03   5.443e-04  -4.557e-04
redoxCalcite     -2.08   -10.56     -8.48    1.000e-03           0  -1.000e-03
redoxFe(OH)3(a)    0.00     4.89      4.89    2.000e+00   2.005e+00   4.654e-03
redoxFeS(ppt)    -2.20    -6.11     -3.92    1.000e-03           0  -1.000e-03
redoxO2(g)       -1.20    -4.09     -2.89    1.000e+00   1.013e+00   1.264e-02
redoxPyrite       0.00   -18.48    -18.48    1.000e-03   1.401e-03   4.012e-04

------------------------------Surface composition------------------------------

Diffuse Double Layer Surface-Complexation Model

H             
	  1.107e-10  Surface + diffuse layer charge, eq
	 -5.808e-01  Surface charge, eq
	 -2.050e-02  sigma, C/m²
	 -8.305e-02  psi, V
	  3.233e+00  -F*psi/RT
	  2.535e+01  exp(-F*psi/RT)
	  3.417e+04  specific area, m²/g
	  2.734e+06  m² for   8.000e+01 g

	Water in diffuse layer: 2.734e+01 kg, 94.2% of total DDL-water.

	Total moles in diffuse layer (excluding water), Donnan calculation.
	Donnan Layer potential, psi_DL = -2.570e-02 V.
	Boltzmann factor, exp(-psi_DL * F / RT) = 2.719e+00 (= c_DL / c_free if z is +1).

	Element       	     Moles
	Alanine       	  1.1627e-04
	Amm           	  6.2782e-03
	C             	  4.1740e-03
	Ca            	  2.0143e-01
	Cl            	  1.6825e-02
	Cysteine      	  1.1728e-04
	Ferric        	  3.3843e-06
	Ferrous       	  1.5712e-05
	Glutamine     	  1.1615e-04
	Glycine       	  3.1813e-04
	H             	  8.2951e-02
	K             	  4.7751e-03
	Methane       	  1.4671e-05
	Mg            	  8.6752e-02
	Na            	  2.3911e-02
	Nitrate       	  3.6393e-03
	O             	  3.5834e-02
	Ozero         	  4.4145e-03
	P             	  1.0094e-03
	Sulfate       	  2.6285e-03
	Sulfide       	  1.7390e-04
	Threonine     	  1.1615e-04
	Tyrosine      	  1.1615e-04

H_a           
	  3.837e-02  moles
	                                   Mole                     Log
	Species               Moles    Fraction    Molality    Molality

	H_a-              3.778e-02       0.985   2.003e-02      -1.698
	H_aCa+            4.364e-04       0.011   2.313e-04      -3.636
	H_aMg+            1.497e-04       0.004   7.933e-05      -4.101
	H_aH              7.786e-06       0.000   4.128e-06      -5.384

H_ab          
	  6.378e-02  moles
	                                   Mole                     Log
	Species               Moles    Fraction    Molality    Molality

	H_ab-2            6.332e-02       0.993   3.356e-02      -1.474
	H_abCa            2.313e-04       0.004   1.226e-04      -3.911
	H_abH-            1.681e-04       0.003   8.913e-05      -4.050
	H_abMg            6.301e-05       0.001   3.340e-05      -4.476
	H_abH2            3.466e-08       0.000   1.837e-08      -7.736

H_ad          
	  6.378e-02  moles
	                                   Mole                     Log
	Species               Moles    Fraction    Molality    Molality

	H_ad-2            2.847e-02       0.446   1.509e-02      -1.821
	H_adCa            1.766e-02       0.277   9.362e-03      -2.029
	H_adH-            1.284e-02       0.201   6.805e-03      -2.167
	H_adMg            4.811e-03       0.075   2.550e-03      -2.593
	H_adH2            2.646e-06       0.000   1.403e-06      -5.853

H_af          
	  6.378e-02  moles
	                                   Mole                     Log
	Species               Moles    Fraction    Molality    Molality

	H_afH-            5.678e-02       0.890   3.010e-02      -1.521
	H_afCa            6.962e-03       0.109   3.691e-03      -2.433
	H_af-2            2.042e-05       0.000   1.083e-05      -4.966
	H_afH2            1.170e-05       0.000   6.204e-06      -5.207
	H_afMg            3.221e-06       0.000   1.707e-06      -5.768

H_ah          
	  6.378e-02  moles
	                                   Mole                     Log
	Species               Moles    Fraction    Molality    Molality

	H_ahH-            6.375e-02       1.000   3.379e-02      -1.471
	H_ahCa            1.390e-05       0.000   7.369e-06      -5.133
	H_ahH2            1.314e-05       0.000   6.966e-06      -5.157
	H_ahMg            3.616e-06       0.000   1.917e-06      -5.717
	H_ah-2            4.790e-09       0.000   2.539e-09      -8.595

H_b           
	  3.837e-02  moles
	                                   Mole                     Log
	Species               Moles    Fraction    Molality    Molality

	H_b-              3.191e-02       0.832   1.691e-02      -1.772
	H_bCa+            4.749e-03       0.124   2.517e-03      -2.599
	H_bMg+            1.628e-03       0.042   8.632e-04      -3.064
	H_bH              8.473e-05       0.002   4.491e-05      -4.348

H_bc          
	  6.378e-02  moles
	                                   Mole                     Log
	Species               Moles    Fraction    Molality    Molality

	H_bc-2            3.496e-02       0.548   1.853e-02      -1.732
	H_bcCa            2.169e-02       0.340   1.150e-02      -1.939
	H_bcMg            5.908e-03       0.093   3.132e-03      -2.504
	H_bcH-            1.224e-03       0.019   6.487e-04      -3.188
	H_bcH2            3.249e-06       0.000   1.722e-06      -5.764

H_be          
	  6.378e-02  moles
	                                   Mole                     Log
	Species               Moles    Fraction    Molality    Molality

	H_beH-            6.186e-02       0.970   3.279e-02      -1.484
	H_be-2            1.539e-03       0.024   8.159e-04      -3.088
	H_beCa            1.738e-04       0.003   9.211e-05      -4.036
	H_beH2            1.643e-04       0.003   8.707e-05      -4.060
	H_beMg            4.520e-05       0.001   2.396e-05      -4.620

H_bg          
	  6.378e-05  moles
	                                   Mole                     Log
	Species               Moles    Fraction    Molality    Molality

	H_bgH-            6.339e-05       0.994   3.360e-05      -4.474
	H_bgCa            1.781e-07       0.003   9.439e-08      -7.025
	H_bgH2            1.683e-07       0.003   8.922e-08      -7.050
	H_bgMg            4.632e-08       0.001   2.455e-08      -7.610
	H_bg-2            3.295e-10       0.000   1.747e-10      -9.758

H_c           
	  3.837e-02  moles
	                                   Mole                     Log
	Species               Moles    Fraction    Molality    Molality

	H_cCa+            2.051e-02       0.535   1.087e-02      -1.964
	H_c-              1.046e-02       0.273   5.543e-03      -2.256
	H_cMg+            7.035e-03       0.183   3.729e-03      -2.428
	H_cH              3.660e-04       0.010   1.940e-04      -3.712

H_cd          
	  6.378e-05  moles
	                                   Mole                     Log
	Species               Moles    Fraction    Molality    Molality

	H_cdCa            4.958e-05       0.777   2.628e-05      -4.580
	H_cdMg            1.351e-05       0.212   7.160e-06      -5.145
	H_cd-2            4.706e-07       0.007   2.495e-07      -6.603
	H_cdH-            2.122e-07       0.003   1.125e-07      -6.949
	H_cdH2            7.429e-09       0.000   3.938e-09      -8.405

H_cf          
	  6.378e-02  moles
	                                   Mole                     Log
	Species               Moles    Fraction    Molality    Molality

	H_cfH-            5.894e-02       0.924   3.125e-02      -1.505
	H_cfCa            2.183e-03       0.034   1.157e-03      -2.937
	H_cfH2            2.063e-03       0.032   1.094e-03      -2.961
	H_cfMg            5.678e-04       0.009   3.010e-04      -3.521
	H_cf-2            2.120e-05       0.000   1.124e-05      -4.949

H_ch          
	  6.378e-02  moles
	                                   Mole                     Log
	Species               Moles    Fraction    Molality    Molality

	H_chH-            5.896e-02       0.924   3.126e-02      -1.505
	H_chCa            2.183e-03       0.034   1.157e-03      -2.937
	H_chH2            2.064e-03       0.032   1.094e-03      -2.961
	H_chMg            5.680e-04       0.009   3.011e-04      -3.521
	H_ch-2            4.431e-09       0.000   2.349e-09      -8.629

H_d           
	  3.837e-02  moles
	                                   Mole                     Log
	Species               Moles    Fraction    Molality    Molality

	H_dCa+            2.740e-02       0.714   1.453e-02      -1.838
	H_dMg+            9.396e-03       0.245   4.981e-03      -2.303
	H_d-              1.084e-03       0.028   5.747e-04      -3.241
	H_dH              4.889e-04       0.013   2.592e-04      -3.586

H_de          
	  6.378e-05  moles
	                                   Mole                     Log
	Species               Moles    Fraction    Molality    Molality

	H_deH-            3.071e-05       0.481   1.628e-05      -4.788
	H_deCa            1.465e-05       0.230   7.765e-06      -5.110
	H_deH2            1.385e-05       0.217   7.341e-06      -5.134
	H_deMg            3.811e-06       0.060   2.020e-06      -5.695
	H_de-2            7.641e-07       0.012   4.050e-07      -6.393

H_dg          
	  6.378e-05  moles
	                                   Mole                     Log
	Species               Moles    Fraction    Molality    Molality

	H_dgH-            3.108e-05       0.487   1.648e-05      -4.783
	H_dgCa            1.483e-05       0.232   7.860e-06      -5.105
	H_dgH2            1.402e-05       0.220   7.430e-06      -5.129
	H_dgMg            3.857e-06       0.060   2.045e-06      -5.689
	H_dg-2            1.616e-10       0.000   8.565e-11     -10.067

H_e           
	  1.919e-02  moles
	                                   Mole                     Log
	Species               Moles    Fraction    Molality    Molality

	H_eH              1.851e-02       0.964   9.811e-03      -2.008
	H_e-              4.605e-04       0.024   2.441e-04      -3.612
	H_eCa+            1.682e-04       0.009   8.918e-05      -4.050
	H_eMg+            5.384e-05       0.003   2.854e-05      -4.545

H_f           
	  1.919e-02  moles
	                                   Mole                     Log
	Species               Moles    Fraction    Molality    Molality

	H_fH              1.896e-02       0.988   1.005e-02      -1.998
	H_fCa+            1.723e-04       0.009   9.134e-05      -4.039
	H_fMg+            5.514e-05       0.003   2.923e-05      -4.534
	H_f-              6.817e-06       0.000   3.614e-06      -5.442

H_g           
	  1.919e-02  moles
	                                   Mole                     Log
	Species               Moles    Fraction    Molality    Molality

	H_gH              1.896e-02       0.988   1.005e-02      -1.998
	H_gCa+            1.724e-04       0.009   9.137e-05      -4.039
	H_gMg+            5.516e-05       0.003   2.924e-05      -4.534
	H_g-              9.858e-08       0.000   5.225e-08      -7.282

H_h           
	  1.919e-02  moles
	                                   Mole                     Log
	Species               Moles    Fraction    Molality    Molality

	H_hH              1.896e-02       0.988   1.005e-02      -1.998
	H_hCa+            1.724e-04       0.009   9.137e-05      -4.039
	H_hMg+            5.516e-05       0.003   2.924e-05      -4.534
	H_h-              1.425e-09       0.000   7.553e-10      -9.122

Hfo           
	  2.707e-14  Surface + diffuse layer charge, eq
	 -1.421e-04  Surface charge, eq
	 -8.162e-05  sigma, C/m²
	 -4.946e-04  psi, V
	  1.925e-02  -F*psi/RT
	  1.019e+00  exp(-F*psi/RT)
	  6.000e+02  specific area, m²/g
	  1.680e+05  m² for   2.800e+02 g

	Water in diffuse layer: 1.680e+00 kg,  5.8% of total DDL-water.

	Total moles in diffuse layer (excluding water), Donnan calculation.
	Donnan Layer potential, psi_DL = -2.076e-04 V.
	Boltzmann factor, exp(-psi_DL * F / RT) = 1.008e+00 (= c_DL / c_free if z is +1).

	Element       	     Moles
	Alanine       	  5.1896e-05
	Amm           	  1.4366e-04
	C             	  4.4055e-04
	Ca            	  1.7640e-03
	Cl            	  2.7889e-03
	Cysteine      	  5.1790e-05
	Ferric        	  9.9802e-08
	Ferrous       	  1.4476e-07
	Glutamine     	  5.1909e-05
	Glycine       	  5.2668e-05
	H             	  4.4507e-03
	K             	  1.0897e-04
	Methane       	  9.0166e-07
	Mg            	  7.6500e-04
	Na            	  5.4546e-04
	Nitrate       	  6.0322e-04
	O             	  6.0627e-03
	Ozero         	  2.7131e-04
	P             	  1.4442e-04
	Sulfate       	  6.2164e-04
	Sulfide       	  1.3932e-05
	Threonine     	  5.1909e-05
	Tyrosine      	  5.1909e-05

Hfo_s         
	  5.000e-06  moles
	                                   Mole                     Log
	Species               Moles    Fraction    Molality    Molality

	Hfo_sOHCa+2       4.660e-06       0.932   2.470e-06      -5.607
	Hfo_sOH2+         2.725e-07       0.054   1.445e-07      -6.840
	Hfo_sOH           6.559e-08       0.013   3.477e-08      -7.459
	Hfo_sOFerrous+    2.023e-09       0.000   1.073e-09      -8.970
	Hfo_sO-           3.616e-10       0.000   1.917e-10      -9.717

Hfo_w         
	  2.000e-04  moles
	                                   Mole                     Log
	Species               Moles    Fraction    Molality    Molality

	Hfo_wHPO4-        1.407e-04       0.703   7.457e-05      -4.127
	Hfo_wH2PO4        2.381e-05       0.119   1.262e-05      -4.899
	Hfo_wOH2+         1.707e-05       0.085   9.050e-06      -5.043
	Hfo_wPO4-2        1.411e-05       0.071   7.482e-06      -5.126
	Hfo_wOH           4.109e-06       0.021   2.178e-06      -5.662
	Hfo_wOMg+         1.592e-07       0.001   8.439e-08      -7.074
	Hfo_wO-           2.266e-08       0.000   1.201e-08      -7.920
	Hfo_wOCa+         2.074e-08       0.000   1.099e-08      -7.959
	Hfo_wSulfateO4-   1.207e-08       0.000   6.397e-09      -8.194
	Hfo_wOHSulfateO4-2   5.795e-09       0.000   3.072e-09      -8.513
	Hfo_wOFerrous+    1.183e-09       0.000   6.271e-10      -9.203
	Hfo_wOFerrousOH   1.494e-11       0.000   7.920e-12     -11.101

-----------------------------Exchange composition------------------------------

X                1.600e+01 mol

	                               Equiv-    Equivalent      Log 
	Species             Moles      alents      Fraction     Gamma

	CaX2              5.131e+00   1.026e+01   6.414e-01    -0.000
	MgX2              2.789e+00   5.578e+00   3.486e-01    -0.000
	NaX               8.900e-02   8.900e-02   5.562e-03    -0.000
	AmmH4X            4.136e-02   4.136e-02   2.585e-03    -0.000
	KX                2.812e-02   2.812e-02   1.758e-03    -0.000
	HX                6.696e-04   6.696e-04   4.185e-05    -0.030
	FerrousX2         5.828e-04   1.166e-03   7.285e-05    -0.129

-----------------------------Solution composition------------------------------

	Elements           Molality       Moles

	Alanine           3.139e-05   5.922e-05
	Amm               8.483e-05   1.600e-04
	C                 2.637e-04   4.974e-04
	Ca                1.034e-03   1.950e-03
	Cl                1.673e-03   3.157e-03
	Cysteine          3.133e-05   5.910e-05
	Ferric            5.910e-08   1.115e-07
	Ferrous           8.491e-08   1.602e-07
	Glutamine         3.140e-05   5.924e-05
	Glycine           3.160e-05   5.962e-05
	K                 6.434e-05   1.214e-04
	Methane           5.367e-07   1.012e-06
	Mg                4.484e-04   8.459e-04
	Na                3.221e-04   6.076e-04
	Nitrate           3.620e-04   6.828e-04
	Ozero             1.615e-04   3.046e-04
	P                 8.672e-05   1.636e-04
	Sulfate           3.752e-04   7.078e-04
	Sulfide           8.318e-06   1.569e-05
	Threonine         3.140e-05   5.924e-05
	Tyrosine          3.140e-05   5.924e-05

----------------------------Description of solution----------------------------

                                       pH  =   6.680      Charge balance
                                       pe  =  -6.751      Adjusted to redox equilibrium
      Specific Conductance (µS/cm,  25°C)  = 375
                        Activity of water  =   1.000
                 Ionic strength (mol/kgw)  =   5.223e-03
                       Mass of water (kg)  =   1.886e+00
                 Total alkalinity (eq/kg)  =   4.065e-04
                       Total CO2 (mol/kg)  =   2.637e-04
                         Temperature (°C)  =  25.00
                           Pressure (atm)  =  0.07
                  Electrical balance (eq)  =  -8.060e-10
 Percent error, 100*(Cat-|An|)/(Cat+|An|)  =  -0.00
                               Iterations  = 179
                                  Total H  = 2.094227e+02
                                  Total O  = 1.047157e+02

----------------------------Distribution of species----------------------------

                                               Log       Log       Log    mole V
   Species          Molality    Activity  Molality  Activity     Gamma   cm³/mol

   H+              2.242e-07   2.090e-07    -6.649    -6.680    -0.030      0.00
   OH-             5.179e-08   4.789e-08    -7.286    -7.320    -0.034     (0)  
   H2O             5.551e+01   9.999e-01     1.744    -0.000     0.000     18.07
Alanine       3.139e-05
   Alanine-2       3.139e-05   2.304e-05    -4.503    -4.638    -0.134     (0)  
   H2(Alanine)     7.452e-09   7.461e-09    -8.128    -8.127     0.001     (0)  
   H(Alanine)-     1.165e-09   1.078e-09    -8.934    -8.967    -0.034     (0)  
Amm           8.483e-05
   AmmH4+          8.436e-05   7.786e-05    -4.074    -4.109    -0.035     (0)  
   AmmH4SulfateO4-   2.576e-07   2.384e-07    -6.589    -6.623    -0.034     (0)  
   AmmH3           2.120e-07   2.123e-07    -6.674    -6.673     0.001     (0)  
C(4)          2.637e-04
   HCO3-           1.819e-04   1.688e-04    -3.740    -3.773    -0.033     (0)  
   CO2             7.922e-05   7.932e-05    -4.101    -4.101     0.001     (0)  
   CaHCO3+         1.700e-06   1.577e-06    -5.769    -5.802    -0.033     (0)  
   MgHCO3+         6.746e-07   6.244e-07    -6.171    -6.205    -0.034     (0)  
   CO3-2           5.116e-08   3.786e-08    -7.291    -7.422    -0.131     (0)  
   CaCO3           4.654e-08   4.659e-08    -7.332    -7.332     0.001     (0)  
   NaHCO3          2.824e-08   2.827e-08    -7.549    -7.549     0.001     (0)  
   MgCO3           1.141e-08   1.143e-08    -7.943    -7.942     0.001     (0)  
   FerrousHCO3+    1.028e-09   9.513e-10    -8.988    -9.022    -0.034     (0)  
   NaCO3-          2.269e-10   2.101e-10    -9.644    -9.678    -0.034     (0)  
   FerrousCO3      5.114e-11   5.120e-11   -10.291   -10.291     0.001     (0)  
Ca            1.034e-03
   Ca+2            9.903e-04   7.325e-04    -3.004    -3.135    -0.131     (0)  
   CaSulfateO4     3.470e-05   3.474e-05    -4.460    -4.459     0.001     (0)  
   CaHPO4          6.052e-06   6.059e-06    -5.218    -5.218     0.001     (0)  
   CaHCO3+         1.700e-06   1.577e-06    -5.769    -5.802    -0.033     (0)  
   CaH2PO4+        1.028e-06   9.519e-07    -5.988    -6.021    -0.034     (0)  
   CaPO4-          7.409e-08   6.858e-08    -7.130    -7.164    -0.034     (0)  
   CaCO3           4.654e-08   4.659e-08    -7.332    -7.332     0.001     (0)  
   CaOH+           6.283e-10   5.815e-10    -9.202    -9.235    -0.034     (0)  
   CaHSulfateO4+   4.596e-11   4.254e-11   -10.338   -10.371    -0.034     (0)  
Cl            1.673e-03
   Cl-             1.673e-03   1.548e-03    -2.776    -2.810    -0.034     (0)  
   FerrousCl+      1.301e-10   1.204e-10    -9.886    -9.919    -0.034     (0)  
   FerricCl+2      4.526e-17   3.322e-17   -16.344   -16.479    -0.134     (0)  
   FerricCl2+      2.481e-19   2.296e-19   -18.605   -18.639    -0.034     (0)  
   FerricCl3       3.550e-23   3.554e-23   -22.450   -22.449     0.001     (0)  
Cysteine      3.133e-05
   Cysteine-2      3.127e-05   2.295e-05    -4.505    -4.639    -0.134     (0)  
   H2(Cysteine)    6.035e-08   6.042e-08    -7.219    -7.219     0.001     (0)  
   H(Cysteine)-    2.658e-10   2.460e-10    -9.575    -9.609    -0.034     (0)  
Ferric        5.910e-08
   Ferric(OH)2+    3.757e-08   3.477e-08    -7.425    -7.459    -0.034     (0)  
   Ferric(OH)3     2.140e-08   2.143e-08    -7.670    -7.669     0.001     (0)  
   Ferric(OH)4-    1.010e-10   9.349e-11    -9.996   -10.029    -0.034     (0)  
   FerricOH+2      2.991e-11   2.195e-11   -10.524   -10.659    -0.134     (0)  
   FerricH2PO4+2   1.324e-14   9.716e-15   -13.878   -14.013    -0.134     (0)  
   FerricHPO4+     3.118e-15   2.886e-15   -14.506   -14.540    -0.034     (0)  
   FerricSulfateO4+   2.001e-15   1.852e-15   -14.699   -14.732    -0.034     (0)  
   Ferric+3        1.334e-15   7.107e-16   -14.875   -15.148    -0.273     (0)  
   FerricCl+2      4.526e-17   3.322e-17   -16.344   -16.479    -0.134     (0)  
   Ferric(SulfateO4)2-   1.041e-17   9.633e-18   -16.983   -17.016    -0.034     (0)  
   FerricCl2+      2.481e-19   2.296e-19   -18.605   -18.639    -0.034     (0)  
   Ferric2(OH)2+4   4.469e-20   1.297e-20   -19.350   -19.887    -0.537     (0)  
   FerricHSulfateO4+2   1.413e-21   1.037e-21   -20.850   -20.984    -0.134     (0)  
   FerricCl3       3.550e-23   3.554e-23   -22.450   -22.449     0.001     (0)  
   Ferric3(OH)4+5   6.511e-25   9.423e-26   -24.186   -25.026    -0.839     (0)  
Ferrous       8.491e-08
   Ferrous+2       7.588e-08   5.637e-08    -7.120    -7.249    -0.129     (0)  
   FerrousHPO4     3.382e-09   3.386e-09    -8.471    -8.470     0.001     (0)  
   FerrousSulfateO4   2.380e-09   2.383e-09    -8.623    -8.623     0.001     (0)  
   FerrousH2PO4+   1.550e-09   1.435e-09    -8.810    -8.843    -0.034     (0)  
   FerrousHCO3+    1.028e-09   9.513e-10    -8.988    -9.022    -0.034     (0)  
   Ferrous(HSulfide)2   4.108e-10   4.113e-10    -9.386    -9.386     0.001     (0)  
   FerrousCl+      1.301e-10   1.204e-10    -9.886    -9.919    -0.034     (0)  
   FerrousOH+      9.213e-11   8.528e-11   -10.036   -10.069    -0.034     (0)  
   FerrousCO3      5.114e-11   5.120e-11   -10.291   -10.291     0.001     (0)  
   Ferrous(HSulfide)3-   1.384e-13   1.281e-13   -12.859   -12.892    -0.034     (0)  
   FerrousHSulfateO4+   3.537e-15   3.274e-15   -14.451   -14.485    -0.034     (0)  
Glutamine     3.140e-05
   Glutamine-2     3.140e-05   2.305e-05    -4.503    -4.637    -0.134     (0)  
   H2(Glutamine)   1.357e-09   1.358e-09    -8.868    -8.867     0.001     (0)  
   H(Glutamine)-   7.698e-10   7.125e-10    -9.114    -9.147    -0.034     (0)  
Glycine       3.160e-05
   Glycine-        3.160e-05   2.925e-05    -4.500    -4.534    -0.034     (0)  
   H2(Glycine)+    5.496e-09   5.087e-09    -8.260    -8.294    -0.034     (0)  
   H(Glycine)      1.336e-09   1.337e-09    -8.874    -8.874     0.001     (0)  
H(0)          1.966e-03
   H2              9.832e-04   9.844e-04    -3.007    -3.007     0.001     (0)  
K             6.434e-05
   K+              6.423e-05   5.940e-05    -4.192    -4.226    -0.034     (0)  
   KSulfateO4-     1.072e-07   9.921e-08    -6.970    -7.003    -0.034     (0)  
   KHPO4-          1.888e-09   1.747e-09    -8.724    -8.758    -0.034     (0)  
   KOH             9.841e-13   9.853e-13   -12.007   -12.006     0.001     (0)  
Methane       5.367e-07
   MethaneH4       5.367e-07   5.373e-07    -6.270    -6.270     0.001     (0)  
Mg            4.484e-04
   Mg+2            4.260e-04   3.162e-04    -3.371    -3.500    -0.129     (0)  
   MgSulfateO4     1.760e-05   1.762e-05    -4.754    -4.754     0.001     (0)  
   MgHPO4          3.532e-06   3.537e-06    -5.452    -5.451     0.001     (0)  
   MgHCO3+         6.746e-07   6.244e-07    -6.171    -6.205    -0.034     (0)  
   MgH2PO4+        5.654e-07   5.233e-07    -6.248    -6.281    -0.034     (0)  
   MgPO4-          4.315e-08   3.994e-08    -7.365    -7.399    -0.034     (0)  
   MgCO3           1.141e-08   1.143e-08    -7.943    -7.942     0.001     (0)  
   MgOH+           5.934e-09   5.493e-09    -8.227    -8.260    -0.034     (0)  
Na            3.221e-04
   Na+             3.216e-04   2.979e-04    -3.493    -3.526    -0.033     (0)  
   NaSulfateO4-    3.835e-07   3.549e-07    -6.416    -6.450    -0.034     (0)  
   NaHCO3          2.824e-08   2.827e-08    -7.549    -7.549     0.001     (0)  
   NaHPO4-         9.468e-09   8.764e-09    -8.024    -8.057    -0.034     (0)  
   NaCO3-          2.269e-10   2.101e-10    -9.644    -9.678    -0.034     (0)  
   NaOH            9.405e-12   9.416e-12   -11.027   -11.026     0.001     (0)  
Nitrate       3.620e-04
   NitrateO3-      3.620e-04   3.350e-04    -3.441    -3.475    -0.034     (0)  
O(0)          0.000e+00
   O2              0.000e+00   0.000e+00   -86.367   -86.366     0.001     (0)  
Ozero         1.615e-04
   Ozero2          8.075e-05   8.084e-05    -4.093    -4.092     0.001     (0)  
P             8.672e-05
   H2PO4-          5.484e-05   5.079e-05    -4.261    -4.294    -0.033     (0)  
   HPO4-2          2.057e-05   1.509e-05    -4.687    -4.821    -0.135     (0)  
   CaHPO4          6.052e-06   6.059e-06    -5.218    -5.218     0.001     (0)  
   MgHPO4          3.532e-06   3.537e-06    -5.452    -5.451     0.001     (0)  
   CaH2PO4+        1.028e-06   9.519e-07    -5.988    -6.021    -0.034     (0)  
   MgH2PO4+        5.654e-07   5.233e-07    -6.248    -6.281    -0.034     (0)  
   CaPO4-          7.409e-08   6.858e-08    -7.130    -7.164    -0.034     (0)  
   MgPO4-          4.315e-08   3.994e-08    -7.365    -7.399    -0.034     (0)  
   NaHPO4-         9.468e-09   8.764e-09    -8.024    -8.057    -0.034     (0)  
   FerrousHPO4     3.382e-09   3.386e-09    -8.471    -8.470     0.001     (0)  
   KHPO4-          1.888e-09   1.747e-09    -8.724    -8.758    -0.034     (0)  
   FerrousH2PO4+   1.550e-09   1.435e-09    -8.810    -8.843    -0.034     (0)  
   PO4-3           6.537e-11   3.254e-11   -10.185   -10.488    -0.303     (0)  
   FerricH2PO4+2   1.324e-14   9.716e-15   -13.878   -14.013    -0.134     (0)  
   FerricHPO4+     3.118e-15   2.886e-15   -14.506   -14.540    -0.034     (0)  
Sulfate       3.752e-04
   SulfateO4-2     3.221e-04   2.377e-04    -3.492    -3.624    -0.132     (0)  
   CaSulfateO4     3.470e-05   3.474e-05    -4.460    -4.459     0.001     (0)  
   MgSulfateO4     1.760e-05   1.762e-05    -4.754    -4.754     0.001     (0)  
   NaSulfateO4-    3.835e-07   3.549e-07    -6.416    -6.450    -0.034     (0)  
   AmmH4SulfateO4-   2.576e-07   2.384e-07    -6.589    -6.623    -0.034     (0)  
   KSulfateO4-     1.072e-07   9.921e-08    -6.970    -7.003    -0.034     (0)  
   HSulfateO4-     5.219e-09   4.831e-09    -8.282    -8.316    -0.034     (0)  
   FerrousSulfateO4   2.380e-09   2.383e-09    -8.623    -8.623     0.001     (0)  
   CaHSulfateO4+   4.596e-11   4.254e-11   -10.338   -10.371    -0.034     (0)  
   FerrousHSulfateO4+   3.537e-15   3.274e-15   -14.451   -14.485    -0.034     (0)  
   FerricSulfateO4+   2.001e-15   1.852e-15   -14.699   -14.732    -0.034     (0)  
   Ferric(SulfateO4)2-   1.041e-17   9.633e-18   -16.983   -17.016    -0.034     (0)  
   FerricHSulfateO4+2   1.413e-21   1.037e-21   -20.850   -20.984    -0.134     (0)  
Sulfide       8.318e-06
   H2Sulfide       5.223e-06   5.229e-06    -5.282    -5.282     0.001     (0)  
   HSulfide-       3.094e-06   2.861e-06    -5.509    -5.543    -0.034     (0)  
   Ferrous(HSulfide)2   4.108e-10   4.113e-10    -9.386    -9.386     0.001     (0)  
   Sulfide-2       2.240e-12   1.653e-12   -11.650   -11.782    -0.132     (0)  
   Ferrous(HSulfide)3-   1.384e-13   1.281e-13   -12.859   -12.892    -0.034     (0)  
Threonine     3.140e-05
   Threonine-2     3.140e-05   2.305e-05    -4.503    -4.637    -0.134     (0)  
   H2(Threonine)   1.326e-09   1.327e-09    -8.878    -8.877     0.001     (0)  
   H(Threonine)-   7.352e-10   6.805e-10    -9.134    -9.167    -0.034     (0)  
Tyrosine      3.140e-05
   Tyrosine-2      3.140e-05   2.305e-05    -4.503    -4.637    -0.134     (0)  
   H2(Tyrosine)    1.296e-09   1.297e-09    -8.888    -8.887     0.001     (0)  
   H(Tyrosine)-    8.249e-10   7.635e-10    -9.084    -9.117    -0.034     (0)  

------------------------------Saturation indices-------------------------------

  Phase               SI** log IAP   log K(298 K,   0 atm)

  FixpH            -6.68     -6.68    0.00  H+
  H2(g)             0.14     -3.01   -3.15  H2
  H2O(g)           -1.51     -0.00    1.51  H2O
  Halite           -7.92     -6.34    1.58  NaCl
  Hydroxyapatite    0.00     -3.42   -3.42  Ca5(PO4)3OH
  ORM             813.97    -65.26 -879.23  C5H4O2Amm
  redoxAnhydrite   -2.40     -6.76   -4.36  CaSulfateO4
  redoxAragonite   -2.22    -10.56   -8.34  CaCO3
  redoxCalcite     -2.08    -10.56   -8.48  CaCO3
  redoxCH4(g)      -3.41     -6.27   -2.86  MethaneH4
  redoxCO2(g)      -2.63     -4.10   -1.47  CO2
  redoxDolomite    -4.39    -21.48  -17.09  CaMg(CO3)2
  redoxFe(OH)3(a)   0.00      4.89    4.89  Ferric(OH)3
  redoxFeS(ppt)    -2.20     -6.11   -3.92  FerrousSulfide
  redoxGoethite     5.89      4.89   -1.00  FerricOOH
  redoxGypsum      -2.18     -6.76   -4.58  CaSulfateO4:2H2O
  redoxH2S(g)      -4.28     -5.28   -1.00  H2Sulfide
  redoxHematite    13.79      9.78   -4.01  Ferric2O3
  redoxJarosite-K  -7.63    -16.84   -9.21  KFerric3(SulfateO4)2(OH)6
  redoxMackinawite  -1.46     -6.11   -4.65  FerrousSulfide
  redoxMelanterite  -8.66    -10.87   -2.21  FerrousSulfateO4:7H2O
  redoxNH3(g)      -8.44     -6.67    1.77  AmmH3
  redoxO2(g)       -1.20     -4.09   -2.89  Ozero2
  redoxPyrite       0.00    -18.48  -18.48  FerrousSulfide2
  redoxSiderite    -3.78    -14.67  -10.89  FerrousCO3
  redoxSulfur     -10.31     -5.42    4.88  Sulfide
  redoxVivianite   -6.72    -42.72  -36.00  Ferrous3(PO4)2:8H2O

**For a gas, SI = log10(fugacity). Fugacity = pressure * phi / 1 atm.
  For ideal gases, phi = 1.

Reaction step 2.

Using solution 1.	
Using exchange 1.	Exchange assemblage after simulation 3.
Using surface 1.	
Using pure phase assemblage 1.	
Using gas phase 1.	fixed volume gas phase
Using kinetics 1.	Decomposition  

Kinetics 1.	Decomposition  

	Time step: 1 seconds  (Incremented time: 2 seconds)

	Rate name       Delta Moles Total Moles   Reactant        Coefficient

	BA                6.287e-02   6.913e-01   CH2O                      0
	OAC               2.341e-02   9.123e-02   CH2O                      0
	Aero              1.747e-03   1.003e+00   CH2O                      0
	                                          HCO3                  -1.44
	                                          Ozero2                 1.44
	SulR              5.199e-06   1.000e+00   CH2O                      0
	                                          HCO3                     -9
	                                          HSulfide-              -4.5
	                                          SulfateO4-2             4.5
	Meth             -0.000e+00   1.000e+00   CH2O                      0
	                                          HCO3                  20.24
	                                          MethaneH4            -20.24
	POM              -1.406e-01   4.425e+00   CH2O                      0
	MOM               7.300e-02   1.605e+01   CH2O                      0
	DOM              -1.296e-01   6.981e-02   CH2O                      0
	QOM              -5.351e-03   1.753e+00   CH2O                      0
	EP                6.113e-04   5.314e-02   CH2O                      0
	EM                6.113e-04   5.314e-02   CH2O                      0
	respiration       1.443e-01   3.382e-01   CH2O                      0
	Tot              -1.445e-01   2.315e+01   CH2O                      0
	Salt              9.753e-04   2.960e-03   CH2O                      0
	                                          Ca+2                     -2
	                                          Cl-                     -22
	                                          HCO3                     -3
	                                          K+                       -1
	                                          Mg+2                     -4
	                                          Na+                     -25
	                                          Nitrate                  -5
	                                          Sulfate                  -4
	Caero             4.262e-03   6.136e-03   CH2O                      0
	Csulr             5.199e-05   6.072e-05   CH2O                      0
	Cmeth            -0.000e+00   0.000e+00   CH2O                      0

-----------------------------------Gas phase-----------------------------------

Total pressure:  0.07      atmospheres 
    Gas volume:   9.00e-01 liters
  Molar volume:   3.58e+02 liters/mole

                                                        Moles in gas
                                            ----------------------------------
Component                log P           P     Initial       Final       Delta

redoxCH4(g)              -3.41   3.894e-04   1.432e-05   1.432e-05   4.965e-09
redoxCO2(g)              -2.32   4.822e-03   8.570e-05   1.774e-04   9.168e-05
redoxO2(g)               -1.20   6.310e-02   2.321e-03   2.321e-03   0.000e+00

-------------------------------Phase assemblage--------------------------------

                                                      Moles in assemblage
Phase               SI  log IAP  log K(T, P)   Initial       Final       Delta

Hydroxyapatite   -0.00    -3.42     -3.42    5.443e-04   5.750e-04   3.073e-05
redoxCalcite     -1.75   -10.22     -8.48    0.000e+00           0   0.000e+00
redoxFe(OH)3(a)    0.00     4.89      4.89    2.005e+00   2.005e+00  -3.736e-08
redoxFeS(ppt)    -2.05    -5.96     -3.92    0.000e+00           0   0.000e+00
redoxO2(g)       -1.20    -4.09     -2.89    1.013e+00   1.010e+00  -2.514e-03
redoxPyrite       0.00   -18.48    -18.48    1.401e-03   1.374e-03  -2.668e-05

------------------------------Surface composition------------------------------

Diffuse Double Layer Surface-Complexation Model

H             
	 -3.140e-09  Surface + diffuse layer charge, eq
	 -6.034e-01  Surface charge, eq
	 -2.130e-02  sigma, C/m²
	 -7.498e-02  psi, V
	  2.918e+00  -F*psi/RT
	  1.851e+01  exp(-F*psi/RT)
	  3.417e+04  specific area, m²/g
	  2.734e+06  m² for   8.000e+01 g

	Water in diffuse layer: 2.734e+01 kg, 94.2% of total DDL-water.

	Total moles in diffuse layer (excluding water), Donnan calculation.
	Donnan Layer potential, psi_DL = -2.087e-02 V.
	Boltzmann factor, exp(-psi_DL * F / RT) = 2.253e+00 (= c_DL / c_free if z is +1).

	Element       	     Moles
	Alanine       	  1.3712e-04
	Amm           	  6.4037e-03
	C             	  8.7592e-03
	Ca            	  2.1771e-01
	Cl            	  3.4198e-02
	Cysteine      	  1.3808e-04
	Ferric        	  3.3937e-06
	Ferrous       	  1.6765e-05
	Glutamine     	  1.3700e-04
	Glycine       	  3.3290e-04
	H             	  1.3700e-01
	K             	  5.0068e-03
	Methane       	  1.4667e-05
	Mg            	  9.3764e-02
	Na            	  2.9475e-02
	Nitrate       	  7.5791e-03
	O             	  7.1240e-02
	Ozero         	  4.4117e-03
	P             	  9.8460e-04
	Sulfate       	  5.6894e-03
	Sulfide       	  2.4156e-04
	Threonine     	  1.3700e-04
	Tyrosine      	  1.3700e-04

H_a           
	  3.837e-02  moles
	                                   Mole                     Log
	Species               Moles    Fraction    Molality    Molality

	H_a-              3.790e-02       0.988   2.010e-02      -1.697
	H_aCa+            3.441e-04       0.009   1.824e-04      -3.739
	H_aMg+            1.181e-04       0.003   6.262e-05      -4.203
	H_aH              6.798e-06       0.000   3.605e-06      -5.443

H_ab          
	  6.378e-02  moles
	                                   Mole                     Log
	Species               Moles    Fraction    Molality    Molality

	H_ab-2            6.340e-02       0.994   3.362e-02      -1.473
	H_abCa            1.820e-04       0.003   9.651e-05      -4.015
	H_abH-            1.465e-04       0.002   7.768e-05      -4.110
	H_abMg            4.963e-05       0.001   2.631e-05      -4.580
	H_abH2            2.628e-08       0.000   1.393e-08      -7.856

H_ad          
	  6.378e-02  moles
	                                   Mole                     Log
	Species               Moles    Fraction    Molality    Molality

	H_ad-2            3.169e-02       0.497   1.680e-02      -1.775
	H_adCa            1.545e-02       0.242   8.191e-03      -2.087
	H_adH-            1.243e-02       0.195   6.593e-03      -2.181
	H_adMg            4.212e-03       0.066   2.233e-03      -2.651
	H_adH2            2.230e-06       0.000   1.182e-06      -5.927

H_af          
	  6.378e-02  moles
	                                   Mole                     Log
	Species               Moles    Fraction    Molality    Molality

	H_afH-            5.739e-02       0.900   3.043e-02      -1.517
	H_afCa            6.355e-03       0.100   3.370e-03      -2.472
	H_af-2            2.372e-05       0.000   1.258e-05      -4.900
	H_afH2            1.029e-05       0.000   5.458e-06      -5.263
	H_afMg            2.942e-06       0.000   1.560e-06      -5.807

H_ah          
	  6.378e-02  moles
	                                   Mole                     Log
	Species               Moles    Fraction    Molality    Molality

	H_ahH-            6.375e-02       1.000   3.380e-02      -1.471
[...]
	Species               Moles    Fraction    Molality    Molality

	H_fH              1.908e-02       0.994   1.027e-02      -1.988
	H_fCa+            6.858e-05       0.004   3.691e-05      -4.433
	H_fMg+            2.382e-05       0.001   1.282e-05      -4.892
	H_f-              1.448e-05       0.001   7.795e-06      -5.108

H_g           
	  1.919e-02  moles
	                                   Mole                     Log
	Species               Moles    Fraction    Molality    Molality

	H_gH              1.910e-02       0.995   1.028e-02      -1.988
	H_gCa+            6.863e-05       0.004   3.693e-05      -4.433
	H_gMg+            2.384e-05       0.001   1.283e-05      -4.892
	H_g-              2.095e-07       0.000   1.128e-07      -6.948

H_h           
	  1.919e-02  moles
	                                   Mole                     Log
	Species               Moles    Fraction    Molality    Molality

	H_hH              1.910e-02       0.995   1.028e-02      -1.988
	H_hCa+            6.863e-05       0.004   3.694e-05      -4.433
	H_hMg+            2.384e-05       0.001   1.283e-05      -4.892
	H_h-              3.029e-09       0.000   1.630e-09      -8.788

Hfo           
	  3.964e-13  Surface + diffuse layer charge, eq
	  1.214e-05  Surface charge, eq
	  6.970e-06  sigma, C/m²
	  9.183e-06  psi, V
	 -3.574e-04  -F*psi/RT
	  9.996e-01  exp(-F*psi/RT)
	  6.000e+02  specific area, m²/g
	  1.680e+05  m² for   2.800e+02 g

	Water in diffuse layer: 1.680e+00 kg,  5.8% of total DDL-water.

	Total moles in diffuse layer (excluding water), Donnan calculation.
	Donnan Layer potential, psi_DL =  8.319e-07 V.
	Boltzmann factor, exp(-psi_DL * F / RT) = 1.000e+00 (= c_DL / c_free if z is +1).

	Element       	     Moles
	Alanine       	  1.5075e-05
	Amm           	  5.4881e-04
	C             	  3.4494e-02
	Ca            	  3.9052e-02
	Cl            	  8.2828e-02
	Cysteine      	  1.5093e-05
	Ferric        	  3.0488e-07
	Ferrous       	  4.4839e-08
	Glutamine     	  1.5073e-05
	Glycine       	  2.5861e-05
	H             	  2.1379e-01
	K             	  1.1512e-03
	Methane       	  8.9196e-07
	Mg            	  1.7860e-02
	Na            	  2.7371e-02
	Nitrate       	  1.8809e-02
	O             	  1.9043e-01
	Ozero         	  2.6481e-04
	P             	  8.1981e-05
	Sulfate       	  1.2091e-02
	Sulfide       	  2.7009e-03
	Threonine     	  1.5072e-05
	Tyrosine      	  1.5073e-05

Hfo_s         
	  5.000e-06  moles
	                                   Mole                     Log
	Species               Moles    Fraction    Molality    Molality

	Hfo_sOHCa+2       4.895e-06       0.979   2.634e-06      -5.579
	Hfo_sOH2+         9.847e-08       0.020   5.299e-08      -7.276
	Hfo_sOH           6.803e-09       0.001   3.661e-09      -8.436
	Hfo_sO-           1.077e-11       0.000   5.794e-12     -11.237
	Hfo_sOFerrous+    6.344e-13       0.000   3.414e-13     -12.467

Hfo_w         
	  2.000e-04  moles
	                                   Mole                     Log
	Species               Moles    Fraction    Molality    Molality

	Hfo_wOH2+         7.766e-05       0.388   4.179e-05      -4.379
	Hfo_wHPO4-        7.158e-05       0.358   3.852e-05      -4.414
	Hfo_wH2PO4        4.221e-05       0.211   2.272e-05      -4.644
	Hfo_wOH           5.365e-06       0.027   2.887e-06      -5.540
	Hfo_wPO4-2        2.062e-06       0.010   1.109e-06      -5.955
	Hfo_wOMg+         6.559e-07       0.003   3.529e-07      -6.452
	Hfo_wSulfateO4-   3.341e-07       0.002   1.798e-07      -6.745
	Hfo_wOCa+         7.870e-08       0.000   4.235e-08      -7.373
	Hfo_wOHSulfateO4-2   4.590e-08       0.000   2.470e-08      -7.607
	Hfo_wO-           8.491e-09       0.000   4.569e-09      -8.340
	Hfo_wOFerrous+    4.669e-12       0.000   2.513e-12     -11.600
	Hfo_wOFerrousOH   1.687e-14       0.000   9.081e-15     -14.042

-----------------------------Exchange composition------------------------------

X                1.600e+01 mol

	                               Equiv-    Equivalent      Log 
	Species             Moles      alents      Fraction     Gamma

	CaX2              4.652e+00   9.304e+00   5.815e-01    -0.000
	MgX2              2.744e+00   5.489e+00   3.430e-01    -0.000
	NaX               1.098e+00   1.098e+00   6.865e-02    -0.000
	KX                7.136e-02   7.136e-02   4.460e-03    -0.000
	AmmH4X            3.682e-02   3.682e-02   2.301e-03    -0.000
	HX                7.925e-04   7.925e-04   4.953e-05    -0.086
	FerrousX2         1.049e-06   2.097e-06   1.311e-07    -0.410

-----------------------------Solution composition------------------------------

	Elements           Molality       Moles

	Alanine           8.972e-06   1.667e-05
	Amm               3.267e-04   6.070e-04
	C                 2.053e-02   3.815e-02
	Ca                2.325e-02   4.320e-02
	Cl                4.930e-02   9.161e-02
	Cysteine          8.983e-06   1.669e-05
	Ferric            1.815e-07   3.372e-07
	Ferrous           2.669e-08   4.960e-08
	Glutamine         8.971e-06   1.667e-05
	Glycine           1.539e-05   2.860e-05
	K                 6.853e-04   1.273e-03
	Methane           5.309e-07   9.866e-07
	Mg                1.063e-02   1.976e-02
	Na                1.629e-02   3.028e-02
	Nitrate           1.120e-02   2.080e-02
	Ozero             1.576e-04   2.929e-04
	P                 4.880e-05   9.068e-05
	Sulfate           7.197e-03   1.337e-02
	Sulfide           1.608e-03   2.987e-03
	Threonine         8.971e-06   1.667e-05
	Tyrosine          8.971e-06   1.667e-05

----------------------------Description of solution----------------------------

                                       pH  =   6.129      Charge balance
                                       pe  =  -7.086      Adjusted to redox equilibrium
      Specific Conductance (µS/cm,  25°C)  = 7584
                        Activity of water  =   0.997
                 Ionic strength (mol/kgw)  =   1.105e-01
                       Mass of water (kg)  =   1.858e+00
                 Total alkalinity (eq/kg)  =   1.008e-02
                       Total CO2 (mol/kg)  =   2.053e-02
                         Temperature (°C)  =  25.00
                           Pressure (atm)  =  0.39
                  Electrical balance (eq)  =  -1.213e-07
 Percent error, 100*(Cat-|An|)/(Cat+|An|)  =  -0.00
                               Iterations  =  82
                                  Total H  = 2.065220e+02
                                  Total O  = 1.033534e+02

----------------------------Distribution of species----------------------------

                                               Log       Log       Log    mole V
   Species          Molality    Activity  Molality  Activity     Gamma   cm³/mol

   H+              9.042e-07   7.426e-07    -6.044    -6.129    -0.086      0.00
   OH-             1.782e-08   1.344e-08    -7.749    -7.872    -0.123     (0)  
   H2O             5.551e+01   9.967e-01     1.744    -0.001     0.000     18.07
Alanine       8.972e-06
   Alanine-2       8.959e-06   3.242e-06    -5.048    -5.489    -0.441     (0)  
   H2(Alanine)     1.292e-08   1.326e-08    -7.889    -7.878     0.011     (0)  
   H(Alanine)-     6.950e-10   5.390e-10    -9.158    -9.268    -0.110     (0)  
Amm           3.267e-04
   AmmH4+          3.211e-04   2.363e-04    -3.493    -3.627    -0.133     (0)  
   AmmH4SulfateO4-   5.441e-06   4.220e-06    -5.264    -5.375    -0.110     (0)  
   AmmH3           1.767e-07   1.813e-07    -6.753    -6.742     0.011     (0)  
C(4)          2.053e-02
   CO2             1.082e-02   1.110e-02    -1.966    -1.955     0.011     (0)  
   HCO3-           8.467e-03   6.623e-03    -2.072    -2.179    -0.107     (0)  
   CaHCO3+         8.335e-04   6.520e-04    -3.079    -3.186    -0.107     (0)  
   MgHCO3+         3.612e-04   2.802e-04    -3.442    -3.553    -0.110     (0)  
   NaHCO3          4.551e-05   4.668e-05    -4.342    -4.331     0.011     (0)  
   CaCO3           5.285e-06   5.421e-06    -5.277    -5.266     0.011     (0)  
   MgCO3           1.407e-06   1.443e-06    -5.852    -5.841     0.011     (0)  
   CO3-2           1.117e-06   4.183e-07    -5.952    -6.379    -0.427     (0)  
   NaCO3-          1.258e-07   9.761e-08    -6.900    -7.011    -0.110     (0)  
   FerrousHCO3+    5.273e-10   4.090e-10    -9.278    -9.388    -0.110     (0)  
   FerrousCO3      6.040e-12   6.196e-12   -11.219   -11.208     0.011     (0)  
Ca            2.325e-02
   Ca+2            2.032e-02   7.715e-03    -1.692    -2.113    -0.420     (0)  
   CaSulfateO4     2.081e-03   2.134e-03    -2.682    -2.671     0.011     (0)  
   CaHCO3+         8.335e-04   6.520e-04    -3.079    -3.186    -0.107     (0)  
   CaHPO4          6.671e-06   6.843e-06    -5.176    -5.165     0.011     (0)  
   CaCO3           5.285e-06   5.421e-06    -5.277    -5.266     0.011     (0)  
   CaH2PO4+        4.925e-06   3.820e-06    -5.308    -5.418    -0.110     (0)  
   CaPO4-          2.811e-08   2.180e-08    -7.551    -7.662    -0.110     (0)  
   CaHSulfateO4+   1.197e-08   9.285e-09    -7.922    -8.032    -0.110     (0)  
   CaOH+           2.216e-09   1.719e-09    -8.654    -8.765    -0.110     (0)  
Cl            4.930e-02
   Cl-             4.930e-02   3.731e-02    -1.307    -1.428    -0.121     (0)  
   FerrousCl+      4.100e-11   3.180e-11   -10.387   -10.498    -0.110     (0)  
   FerricCl+2      1.002e-13   3.626e-14   -12.999   -13.441    -0.441     (0)  
   FerricCl2+      7.791e-15   6.043e-15   -14.108   -14.219    -0.110     (0)  
   FerricCl3       2.198e-17   2.255e-17   -16.658   -16.647     0.011     (0)  
Cysteine      8.983e-06
   Cysteine-2      8.879e-06   3.213e-06    -5.052    -5.493    -0.441     (0)  
   H2(Cysteine)    1.041e-07   1.068e-07    -6.983    -6.972     0.011     (0)  
   H(Cysteine)-    1.578e-10   1.224e-10    -9.802    -9.912    -0.110     (0)  
Ferric        1.815e-07
   Ferric(OH)2+    1.598e-07   1.239e-07    -6.796    -6.907    -0.110     (0)  
   Ferric(OH)3     2.089e-08   2.143e-08    -7.680    -7.669     0.011     (0)  
   FerricOH+2      7.705e-10   2.789e-10    -9.113    -9.555    -0.441     (0)  
   Ferric(OH)4-    3.382e-11   2.623e-11   -10.471   -10.581    -0.110     (0)  
   FerricSulfateO4+   6.307e-13   4.892e-13   -12.200   -12.311    -0.110     (0)  
   FerricH2PO4+2   4.631e-13   1.676e-13   -12.334   -12.776    -0.441     (0)  
   Ferric+3        1.893e-13   3.218e-14   -12.723   -13.492    -0.770     (0)  
   FerricCl+2      1.002e-13   3.626e-14   -12.999   -13.441    -0.441     (0)  
   Ferric(SulfateO4)2-   1.913e-14   1.484e-14   -13.718   -13.829    -0.110     (0)  
   FerricHPO4+     1.806e-14   1.401e-14   -13.743   -13.854    -0.110     (0)  
   FerricCl2+      7.791e-15   6.043e-15   -14.108   -14.219    -0.110     (0)  
   Ferric2(OH)2+4   1.220e-16   2.093e-18   -15.914   -17.679    -1.766     (0)  
   FerricCl3       2.198e-17   2.255e-17   -16.658   -16.647     0.011     (0)  
   FerricHSulfateO4+2   2.688e-18   9.728e-19   -17.571   -18.012    -0.441     (0)  
   Ferric3(OH)4+5   3.109e-20   5.420e-23   -19.507   -22.266    -2.759     (0)  
Ferrous       2.669e-08
   Ferrous(HSulfide)2   2.365e-08   2.426e-08    -7.626    -7.615     0.011     (0)  
   Ferrous+2       1.586e-09   6.175e-10    -8.800    -9.209    -0.410     (0)  
   Ferrous(HSulfide)3-   7.153e-10   5.548e-10    -9.146    -9.256    -0.110     (0)  
   FerrousHCO3+    5.273e-10   4.090e-10    -9.278    -9.388    -0.110     (0)  
   FerrousSulfateO4   1.484e-10   1.522e-10    -9.829    -9.817     0.011     (0)  
   FerrousCl+      4.100e-11   3.180e-11   -10.387   -10.498    -0.110     (0)  
   FerrousH2PO4+   7.720e-12   5.988e-12   -11.112   -11.223    -0.110     (0)  
   FerrousCO3      6.040e-12   6.196e-12   -11.219   -11.208     0.011     (0)  
   FerrousHPO4     3.877e-12   3.977e-12   -11.412   -11.400     0.011     (0)  
   FerrousOH+      3.379e-13   2.621e-13   -12.471   -12.582    -0.110     (0)  
   FerrousHSulfateO4+   9.581e-16   7.431e-16   -15.019   -15.129    -0.110     (0)  
Glutamine     8.971e-06
   Glutamine-2     8.968e-06   3.246e-06    -5.047    -5.489    -0.441     (0)  
   H2(Glutamine)   2.354e-09   2.415e-09    -8.628    -8.617     0.011     (0)  
   H(Glutamine)-   4.597e-10   3.565e-10    -9.338    -9.448    -0.110     (0)  
Glycine       1.539e-05
   Glycine-        1.536e-05   1.191e-05    -4.814    -4.924    -0.110     (0)  
   H2(Glycine)+    3.372e-08   2.615e-08    -7.472    -7.583    -0.110     (0)  
   H(Glycine)      1.887e-09   1.935e-09    -8.724    -8.713     0.011     (0)  
H(0)          1.132e-01
   H2              5.661e-02   5.807e-02    -1.247    -1.236     0.011     (0)  
K             6.853e-04
   K+              6.788e-04   5.137e-04    -3.168    -3.289    -0.121     (0)  
   KSulfateO4-     6.453e-06   5.005e-06    -5.190    -5.301    -0.110     (0)  
   KHPO4-          2.089e-09   1.621e-09    -8.680    -8.790    -0.110     (0)  
   KOH             2.331e-12   2.391e-12   -11.633   -11.621     0.011     (0)  
Methane       5.309e-07
   MethaneH4       5.309e-07   5.446e-07    -6.275    -6.264     0.011     (0)  
Mg            1.063e-02
   Mg+2            9.116e-03   3.615e-03    -2.040    -2.442    -0.402     (0)  
   MgSulfateO4     1.146e-03   1.175e-03    -2.941    -2.930     0.011     (0)  
   MgHCO3+         3.612e-04   2.802e-04    -3.442    -3.553    -0.110     (0)  
   MgHPO4          4.227e-06   4.336e-06    -5.374    -5.363     0.011     (0)  
   MgH2PO4+        2.939e-06   2.279e-06    -5.532    -5.642    -0.110     (0)  
   MgCO3           1.407e-06   1.443e-06    -5.852    -5.841     0.011     (0)  
   MgOH+           2.272e-08   1.762e-08    -7.644    -7.754    -0.110     (0)  
   MgPO4-          1.777e-08   1.378e-08    -7.750    -7.861    -0.110     (0)  
Na            1.629e-02
   Na+             1.613e-02   1.253e-02    -1.792    -1.902    -0.110     (0)  
   NaSulfateO4-    1.123e-04   8.708e-05    -3.950    -4.060    -0.110     (0)  
   NaHCO3          4.551e-05   4.668e-05    -4.342    -4.331     0.011     (0)  
   NaCO3-          1.258e-07   9.761e-08    -6.900    -7.011    -0.110     (0)  
   NaHPO4-         5.097e-08   3.953e-08    -7.293    -7.403    -0.110     (0)  
   NaOH            1.083e-10   1.111e-10    -9.965    -9.954     0.011     (0)  
Nitrate       1.120e-02
   NitrateO3-      1.120e-02   8.684e-03    -1.951    -2.061    -0.110     (0)  
O(0)          0.000e+00
   O2              0.000e+00   0.000e+00   -89.922   -89.911     0.011     (0)  
Ozero         1.576e-04
   Ozero2          7.881e-05   8.084e-05    -4.103    -4.092     0.011     (0)  
P             4.880e-05
   H2PO4-          2.514e-05   1.935e-05    -4.600    -4.713    -0.114     (0)  
   CaHPO4          6.671e-06   6.843e-06    -5.176    -5.165     0.011     (0)  
   CaH2PO4+        4.925e-06   3.820e-06    -5.308    -5.418    -0.110     (0)  
   HPO4-2          4.797e-06   1.618e-06    -5.319    -5.791    -0.472     (0)  
   MgHPO4          4.227e-06   4.336e-06    -5.374    -5.363     0.011     (0)  
   MgH2PO4+        2.939e-06   2.279e-06    -5.532    -5.642    -0.110     (0)  
   NaHPO4-         5.097e-08   3.953e-08    -7.293    -7.403    -0.110     (0)  
   CaPO4-          2.811e-08   2.180e-08    -7.551    -7.662    -0.110     (0)  
   MgPO4-          1.777e-08   1.378e-08    -7.750    -7.861    -0.110     (0)  
   KHPO4-          2.089e-09   1.621e-09    -8.680    -8.790    -0.110     (0)  
   PO4-3           1.133e-11   9.821e-13   -10.946   -12.008    -1.062     (0)  
   FerrousH2PO4+   7.720e-12   5.988e-12   -11.112   -11.223    -0.110     (0)  
   FerrousHPO4     3.877e-12   3.977e-12   -11.412   -11.400     0.011     (0)  
   FerricH2PO4+2   4.631e-13   1.676e-13   -12.334   -12.776    -0.441     (0)  
   FerricHPO4+     1.806e-14   1.401e-14   -13.743   -13.854    -0.110     (0)  
Sulfate       7.197e-03
   SulfateO4-2     3.846e-03   1.386e-03    -2.415    -2.858    -0.443     (0)  
   CaSulfateO4     2.081e-03   2.134e-03    -2.682    -2.671     0.011     (0)  
   MgSulfateO4     1.146e-03   1.175e-03    -2.941    -2.930     0.011     (0)  
   NaSulfateO4-    1.123e-04   8.708e-05    -3.950    -4.060    -0.110     (0)  
   KSulfateO4-     6.453e-06   5.005e-06    -5.190    -5.301    -0.110     (0)  
   AmmH4SulfateO4-   5.441e-06   4.220e-06    -5.264    -5.375    -0.110     (0)  
   HSulfateO4-     1.291e-07   1.001e-07    -6.889    -7.000    -0.110     (0)  
   CaHSulfateO4+   1.197e-08   9.285e-09    -7.922    -8.032    -0.110     (0)  
   FerrousSulfateO4   1.484e-10   1.522e-10    -9.829    -9.817     0.011     (0)  
   FerricSulfateO4+   6.307e-13   4.892e-13   -12.200   -12.311    -0.110     (0)  
   Ferric(SulfateO4)2-   1.913e-14   1.484e-14   -13.718   -13.829    -0.110     (0)  
   FerrousHSulfateO4+   9.581e-16   7.431e-16   -15.019   -15.129    -0.110     (0)  
   FerricHSulfateO4+2   2.688e-18   9.728e-19   -17.571   -18.012    -0.441     (0)  
Sulfide       1.608e-03
   H2Sulfide       1.329e-03   1.363e-03    -2.876    -2.865     0.011     (0)  
   HSulfide-       2.785e-04   2.100e-04    -3.555    -3.678    -0.123     (0)  
   Ferrous(HSulfide)2   2.365e-08   2.426e-08    -7.626    -7.615     0.011     (0)  
   Ferrous(HSulfide)3-   7.153e-10   5.548e-10    -9.146    -9.256    -0.110     (0)  
   Sulfide-2       9.378e-11   3.415e-11   -10.028   -10.467    -0.439     (0)  
Threonine     8.971e-06
   Threonine-2     8.968e-06   3.246e-06    -5.047    -5.489    -0.441     (0)  
   H2(Threonine)   2.300e-09   2.360e-09    -8.638    -8.627     0.011     (0)  
   H(Threonine)-   4.390e-10   3.405e-10    -9.358    -9.468    -0.110     (0)  
Tyrosine      8.971e-06
   Tyrosine-2      8.968e-06   3.246e-06    -5.047    -5.489    -0.441     (0)  
   H2(Tyrosine)    2.248e-09   2.306e-09    -8.648    -8.637     0.011     (0)  
   H(Tyrosine)-    4.925e-10   3.820e-10    -9.308    -9.418    -0.110     (0)  

------------------------------Saturation indices-------------------------------

  Phase               SI** log IAP   log K(298 K,   0 atm)

  FixpH            -6.13     -6.13    0.00  H+
  H2(g)             1.91     -1.24   -3.15  H2
  H2O(g)           -1.51     -0.00    1.51  H2O
  Halite           -4.91     -3.33    1.58  NaCl
  Hydroxyapatite    0.00     -3.42   -3.42  Ca5(PO4)3OH
  ORM             805.39    -73.84 -879.23  C5H4O2Amm
  redoxAnhydrite   -0.61     -4.97   -4.36  CaSulfateO4
  redoxAragonite   -0.16     -8.49   -8.34  CaCO3
  redoxCalcite     -0.01     -8.49   -8.48  CaCO3
  redoxCH4(g)      -3.40     -6.26   -2.86  MethaneH4
  redoxCO2(g)      -0.49     -1.95   -1.47  CO2
  redoxDolomite    -0.22    -17.31  -17.09  CaMg(CO3)2
  redoxFe(OH)3(a)  -0.00      4.89    4.89  Ferric(OH)3
  redoxFeS(ppt)    -2.84     -6.76   -3.92  FerrousSulfide
  redoxGoethite     5.89      4.89   -1.00  FerricOOH
  redoxGypsum      -0.39     -4.97   -4.58  CaSulfateO4:2H2O
  redoxH2S(g)      -1.87     -2.87   -1.00  H2Sulfide
  redoxHematite    13.79      9.79   -4.01  Ferric2O3
  redoxJarosite-K  -3.51    -12.72   -9.21  KFerric3(SulfateO4)2(OH)6
  redoxMackinawite  -2.11     -6.76   -4.65  FerrousSulfide
  redoxMelanterite  -9.87    -12.08   -2.21  FerrousSulfateO4:7H2O
  redoxNH3(g)      -8.51     -6.74    1.77  AmmH3
  redoxO2(g)       -1.20     -4.09   -2.89  Ozero2
  redoxPyrite       0.00    -18.48  -18.48  FerrousSulfide2
  redoxSiderite    -4.70    -15.59  -10.89  FerrousCO3
  redoxSulfur      -9.66     -4.78    4.88  Sulfide
  redoxVivianite  -15.66    -51.66  -36.00  Ferrous3(PO4)2:8H2O

**For a gas, SI = log10(fugacity). Fugacity = pressure * phi / 1 atm.
  For ideal gases, phi = 1.

------------------
End of simulation.
------------------

------------------------------------
Reading input data for simulation 4.
------------------------------------

---------------------------------
End of Run after 48.9231 Seconds.
---------------------------------

