   Input file: fixp_redox_sw2.phrq
  Output file: fixp_redox_sw2.phrq.out
Database file: ../database/redox.dat

------------------
Reading data base.
------------------

	SOLUTION_MASTER_SPECIES
	SOLUTION_SPECIES
	PHASES
	EXCHANGE_MASTER_SPECIES
	EXCHANGE_SPECIES
	SURFACE_MASTER_SPECIES
	SURFACE_SPECIES
	RATES
	END
------------------------------------
Reading input data for simulation 1.
------------------------------------

	DATABASE ../database/redox.dat
	TITLE  MEND and redox coupling
	CALCULATE_VALUES
	SC_T25
	 start
	 10 sc25 = SC/(1+0.021*(temperature-25))   #in us/cm
	 20 SAVE sc25
	 end
	fsl1    ##more sensitive (green)
	 start
	 10 fsl1 = 1 / (1.0 + exp(1.68 * (log10(CALC_VALUE("SC_T25")/1000)+0.26))) #log(ds/m)
	 40 SAVE fsl1
	 end
	fsl2     ##medium (purple)
	 start
	 10 fsl2 = 1 / (1.0 + exp(2.28 * (log10(CALC_VALUE("SC_T25")/1000)-0.60)))  #log(ds/m)
	 40 SAVE fsl2
	 end
	fsl3     ##medium (red)
	 start
	 10 fsl3 = 1 / (1.0 + exp(2.23 * (log10(CALC_VALUE("SC_T25")/1000)-1.11)))  #log(ds/m)
	 40 SAVE fsl3
	 end
	fsl4    ##more resistant (black)
	 start
	 10 fsl4 = 1 / (1.0 + exp(4.03 * (log10(CALC_VALUE("SC_T25")/1000)-1.78)))  #log(ds/m)
	 40 SAVE fsl4
	 end
	SOLUTION 1    
	units umol/L        #3.774L total volume  ##based on clay fresh system
	pH    7  charge
	temperature 	 25
	water         1.887   #default is 1 kg
	P           5
	Amm         38
	Na          114
	Ca          183
	Cl          133 
	Sulfate     4 
	K           28
	Mg          79
	C(4)        9  
	Nitrate        0
	Ferric       50
	Alanine      52
	Cysteine     52
	Glycine      52
	Glutamine    52
	Threonine    52
	Tyrosine     52
	Ozero        600    redoxO2(g) -0.7
	Methane      1
	Sulfide      0.1
	  SAVE SOLUTION 1
	END
-----
TITLE
-----

  MEND and redox coupling

-------------------------------------------
Beginning of initial solution calculations.
-------------------------------------------

Initial solution 1.	

-----------------------------Solution composition------------------------------

	Elements           Molality       Moles

	Alanine           5.200e-05   9.813e-05
	Amm               3.800e-05   7.171e-05
	C(4)              9.001e-06   1.698e-05
	Ca                1.830e-04   3.453e-04
	Cl                1.330e-04   2.510e-04
	Cysteine          5.200e-05   9.813e-05
	Ferric            5.000e-05   9.436e-05
	Glutamine         5.200e-05   9.813e-05
	Glycine           5.200e-05   9.813e-05
	K                 2.800e-05   5.284e-05
	Methane           1.000e-06   1.887e-06
	Mg                7.901e-05   1.491e-04
	Na                1.140e-04   2.151e-04
	Ozero             5.111e-04   9.645e-04  Equilibrium with redoxO2(g)
	P                 5.000e-06   9.436e-06
	Sulfate           4.000e-06   7.549e-06
	Sulfide           1.000e-07   1.887e-07
	Threonine         5.200e-05   9.813e-05
	Tyrosine          5.200e-05   9.813e-05

----------------------------Description of solution----------------------------

                                       pH  =   6.951      Charge balance
                                       pe  =   4.000    
      Specific Conductance (µS/cm,  25°C)  = 49
                        Activity of water  =   1.000
                 Ionic strength (mol/kgw)  =   1.254e-03
                       Mass of water (kg)  =   1.887e+00
                 Total alkalinity (eq/kg)  =   3.480e-04
                       Total CO2 (mol/kg)  =   9.001e-06
                         Temperature (°C)  =  25.00
                  Electrical balance (eq)  =   1.862e-17
 Percent error, 100*(Cat-|An|)/(Cat+|An|)  =   0.00
                               Iterations  =   8
                                  Total H  = 2.094810e+02
                                  Total O  = 1.047406e+02

----------------------------Distribution of species----------------------------

                                               Log       Log       Log    mole V
   Species          Molality    Activity  Molality  Activity     Gamma   cm³/mol

   H+              1.163e-07   1.120e-07    -6.935    -6.951    -0.016      0.00
   OH-             9.305e-08   8.941e-08    -7.031    -7.049    -0.017     (0)  
   H2O             5.551e+01   1.000e+00     1.744    -0.000     0.000     18.07
Alanine       5.200e-05
   Alanine-2       5.200e-05   4.436e-05    -4.284    -4.353    -0.069     (0)  
   H2(Alanine)     4.121e-09   4.123e-09    -8.385    -8.385     0.000     (0)  
   H(Alanine)-     1.157e-09   1.112e-09    -8.937    -8.954    -0.017     (0)  
Amm           3.800e-05
   AmmH4+          3.782e-05   3.632e-05    -4.422    -4.440    -0.018     (0)  
   AmmH3           1.848e-07   1.848e-07    -6.733    -6.733     0.000     (0)  
   AmmH4SulfateO4-   1.598e-09   1.536e-09    -8.796    -8.814    -0.017     (0)  
C(4)          9.001e-06
   HCO3-           7.227e-06   6.949e-06    -5.141    -5.158    -0.017     (0)  
   CO2             1.749e-06   1.750e-06    -5.757    -5.757     0.000     (0)  
   CaHCO3+         1.441e-08   1.385e-08    -7.841    -7.858    -0.017     (0)  
   MgHCO3+         5.710e-09   5.487e-09    -8.243    -8.261    -0.017     (0)  
   CO3-2           3.404e-09   2.911e-09    -8.468    -8.536    -0.068     (0)  
   CaCO3           7.637e-10   7.639e-10    -9.117    -9.117     0.000     (0)  
   NaHCO3          4.281e-10   4.283e-10    -9.368    -9.368     0.000     (0)  
   MgCO3           1.874e-10   1.874e-10    -9.727    -9.727     0.000     (0)  
   NaCO3-          6.180e-12   5.940e-12   -11.209   -11.226    -0.017     (0)  
Ca            1.830e-04
   Ca+2            1.827e-04   1.562e-04    -3.738    -3.806    -0.068     (0)  
   CaHPO4          1.339e-07   1.339e-07    -6.873    -6.873     0.000     (0)  
   CaSulfateO4     1.023e-07   1.023e-07    -6.990    -6.990     0.000     (0)  
   CaHCO3+         1.441e-08   1.385e-08    -7.841    -7.858    -0.017     (0)  
   CaH2PO4+        1.173e-08   1.127e-08    -7.931    -7.948    -0.017     (0)  
   CaPO4-          2.944e-09   2.829e-09    -8.531    -8.548    -0.017     (0)  
   CaCO3           7.637e-10   7.639e-10    -9.117    -9.117     0.000     (0)  
   CaOH+           2.410e-10   2.316e-10    -9.618    -9.635    -0.017     (0)  
   CaHSulfateO4+   6.984e-14   6.712e-14   -13.156   -13.173    -0.017     (0)  
Cl            1.330e-04
   Cl-             1.330e-04   1.278e-04    -3.876    -3.893    -0.017     (0)  
   FerricCl+2      6.028e-16   5.142e-16   -15.220   -15.289    -0.069     (0)  
   FerricCl2+      3.055e-19   2.936e-19   -18.515   -18.532    -0.017     (0)  
   FerricCl3       3.751e-24   3.752e-24   -23.426   -23.426     0.000     (0)  
Cysteine      5.200e-05
   Cysteine-2      5.197e-05   4.433e-05    -4.284    -4.353    -0.069     (0)  
   H2(Cysteine)    3.348e-08   3.349e-08    -7.475    -7.475     0.000     (0)  
   H(Cysteine)-    2.649e-10   2.546e-10    -9.577    -9.594    -0.017     (0)  
Ferric        5.000e-05
   Ferric(OH)3     2.613e-05   2.614e-05    -4.583    -4.583     0.000     (0)  
   Ferric(OH)2+    2.364e-05   2.272e-05    -4.626    -4.644    -0.017     (0)  
   Ferric(OH)4-    2.215e-07   2.129e-07    -6.655    -6.672    -0.017     (0)  
   FerricOH+2      9.006e-09   7.683e-09    -8.045    -8.114    -0.069     (0)  
   Ferric+3        1.870e-13   1.332e-13   -12.728   -12.875    -0.147     (0)  
   FerricH2PO4+2   1.185e-13   1.011e-13   -12.926   -12.995    -0.069     (0)  
   FerricHPO4+     5.833e-14   5.605e-14   -13.234   -13.251    -0.017     (0)  
   FerricSulfateO4+   4.990e-15   4.795e-15   -14.302   -14.319    -0.017     (0)  
   Ferric2(OH)2+4   3.000e-15   1.589e-15   -14.523   -14.799    -0.276     (0)  
   FerricCl+2      6.028e-16   5.142e-16   -15.220   -15.289    -0.069     (0)  
   Ferric3(OH)4+5   2.036e-17   7.541e-18   -16.691   -17.123    -0.431     (0)  
   Ferric(SulfateO4)2-   3.583e-19   3.444e-19   -18.446   -18.463    -0.017     (0)  
   FerricCl2+      3.055e-19   2.936e-19   -18.515   -18.532    -0.017     (0)  
   FerricHSulfateO4+2   1.685e-21   1.438e-21   -20.773   -20.842    -0.069     (0)  
   FerricCl3       3.751e-24   3.752e-24   -23.426   -23.426     0.000     (0)  
Glutamine     5.200e-05
   Glutamine-2     5.200e-05   4.436e-05    -4.284    -4.353    -0.069     (0)  
   H(Glutamine)-   7.645e-10   7.347e-10    -9.117    -9.134    -0.017     (0)  
   H2(Glutamine)   7.500e-10   7.502e-10    -9.125    -9.125     0.000     (0)  
Glycine       5.200e-05
   Glycine-        5.200e-05   4.997e-05    -4.284    -4.301    -0.017     (0)  
   H2(Glycine)+    2.595e-09   2.494e-09    -8.586    -8.603    -0.017     (0)  
   H(Glycine)      1.224e-09   1.224e-09    -8.912    -8.912     0.000     (0)  
H(0)          1.775e-25
   H2              8.873e-26   8.875e-26   -25.052   -25.052     0.000     (0)  
K             2.800e-05
   K+              2.800e-05   2.691e-05    -4.553    -4.570    -0.017     (0)  
   KSulfateO4-     6.457e-10   6.206e-10    -9.190    -9.207    -0.017     (0)  
   KHPO4-          8.533e-11   8.200e-11   -10.069   -10.086    -0.017     (0)  
   KOH             8.329e-13   8.332e-13   -12.079   -12.079     0.000     (0)  
Methane       1.000e-06
   MethaneH4       1.000e-06   1.000e-06    -6.000    -6.000     0.000     (0)  
Mg            7.901e-05
   Mg+2            7.886e-05   6.748e-05    -4.103    -4.171    -0.068     (0)  
   MgHPO4          7.818e-08   7.820e-08    -7.107    -7.107     0.000     (0)  
   MgSulfateO4     5.192e-08   5.193e-08    -7.285    -7.285     0.000     (0)  
   MgH2PO4+        6.450e-09   6.199e-09    -8.190    -8.208    -0.017     (0)  
   MgHCO3+         5.710e-09   5.487e-09    -8.243    -8.261    -0.017     (0)  
   MgOH+           2.277e-09   2.188e-09    -8.643    -8.660    -0.017     (0)  
   MgPO4-          1.715e-09   1.649e-09    -8.766    -8.783    -0.017     (0)  
   MgCO3           1.874e-10   1.874e-10    -9.727    -9.727     0.000     (0)  
Na            1.140e-04
   Na+             1.140e-04   1.096e-04    -3.943    -3.960    -0.017     (0)  
   NaSulfateO4-    1.876e-09   1.803e-09    -8.727    -8.744    -0.017     (0)  
   NaHCO3          4.281e-10   4.283e-10    -9.368    -9.368     0.000     (0)  
   NaHPO4-         3.475e-10   3.340e-10    -9.459    -9.476    -0.017     (0)  
   NaOH            6.464e-12   6.466e-12   -11.189   -11.189     0.000     (0)  
   NaCO3-          6.180e-12   5.940e-12   -11.209   -11.226    -0.017     (0)  
O(0)          0.000e+00
   O2              0.000e+00   0.000e+00   -42.277   -42.276     0.000     (0)  
Ozero         5.111e-04
   Ozero2          2.556e-04   2.556e-04    -3.592    -3.592     0.000     (0)  
P             5.000e-06
   H2PO4-          2.933e-06   2.819e-06    -5.533    -5.550    -0.017     (0)  
   HPO4-2          1.832e-06   1.563e-06    -5.737    -5.806    -0.069     (0)  
   CaHPO4          1.339e-07   1.339e-07    -6.873    -6.873     0.000     (0)  
   MgHPO4          7.818e-08   7.820e-08    -7.107    -7.107     0.000     (0)  
   CaH2PO4+        1.173e-08   1.127e-08    -7.931    -7.948    -0.017     (0)  
   MgH2PO4+        6.450e-09   6.199e-09    -8.190    -8.208    -0.017     (0)  
   CaPO4-          2.944e-09   2.829e-09    -8.531    -8.548    -0.017     (0)  
   MgPO4-          1.715e-09   1.649e-09    -8.766    -8.783    -0.017     (0)  
   NaHPO4-         3.475e-10   3.340e-10    -9.459    -9.476    -0.017     (0)  
   KHPO4-          8.533e-11   8.200e-11   -10.069   -10.086    -0.017     (0)  
   PO4-3           9.000e-12   6.294e-12   -11.046   -11.201    -0.155     (0)  
   FerricH2PO4+2   1.185e-13   1.011e-13   -12.926   -12.995    -0.069     (0)  
   FerricHPO4+     5.833e-14   5.605e-14   -13.234   -13.251    -0.017     (0)  
Sulfate       4.000e-06
   SulfateO4-2     3.842e-06   3.283e-06    -5.415    -5.484    -0.068     (0)  
   CaSulfateO4     1.023e-07   1.023e-07    -6.990    -6.990     0.000     (0)  
   MgSulfateO4     5.192e-08   5.193e-08    -7.285    -7.285     0.000     (0)  
   NaSulfateO4-    1.876e-09   1.803e-09    -8.727    -8.744    -0.017     (0)  
   AmmH4SulfateO4-   1.598e-09   1.536e-09    -8.796    -8.814    -0.017     (0)  
   KSulfateO4-     6.457e-10   6.206e-10    -9.190    -9.207    -0.017     (0)  
   HSulfateO4-     3.718e-11   3.573e-11   -10.430   -10.447    -0.017     (0)  
   CaHSulfateO4+   6.984e-14   6.712e-14   -13.156   -13.173    -0.017     (0)  
   FerricSulfateO4+   4.990e-15   4.795e-15   -14.302   -14.319    -0.017     (0)  
   Ferric(SulfateO4)2-   3.583e-19   3.444e-19   -18.446   -18.463    -0.017     (0)  
   FerricHSulfateO4+2   1.685e-21   1.438e-21   -20.773   -20.842    -0.069     (0)  
Sulfide       1.000e-07
   HSulfide-       5.154e-08   4.952e-08    -7.288    -7.305    -0.017     (0)  
   H2Sulfide       4.847e-08   4.848e-08    -7.315    -7.314     0.000     (0)  
   Sulfide-2       6.251e-14   5.342e-14   -13.204   -13.272    -0.068     (0)  
Threonine     5.200e-05
   Threonine-2     5.200e-05   4.436e-05    -4.284    -4.353    -0.069     (0)  
   H2(Threonine)   7.330e-10   7.332e-10    -9.135    -9.135     0.000     (0)  
   H(Threonine)-   7.301e-10   7.016e-10    -9.137    -9.154    -0.017     (0)  
Tyrosine      5.200e-05
   Tyrosine-2      5.200e-05   4.436e-05    -4.284    -4.353    -0.069     (0)  
   H(Tyrosine)-    8.191e-10   7.872e-10    -9.087    -9.104    -0.017     (0)  
   H2(Tyrosine)    7.163e-10   7.165e-10    -9.145    -9.145     0.000     (0)  

------------------------------Saturation indices-------------------------------

  Phase               SI** log IAP   log K(298 K,   1 atm)

  FixpH            -6.95     -6.95    0.00  H+
  H2(g)           -21.90    -25.05   -3.15  H2
  H2O(g)           -1.51     -0.00    1.51  H2O
  Halite           -9.44     -7.85    1.58  NaCl
  Hydroxyapatite   -5.22     -8.65   -3.42  Ca5(PO4)3OH
  ORM             829.47    -49.76 -879.23  C5H4O2Amm
  redoxAnhydrite   -4.93     -9.29   -4.36  CaSulfateO4
  redoxAragonite   -4.01    -12.34   -8.34  CaCO3
  redoxCalcite     -3.86    -12.34   -8.48  CaCO3
  redoxCH4(g)      -3.14     -6.00   -2.86  MethaneH4
  redoxCO2(g)      -4.29     -5.76   -1.47  CO2
  redoxDolomite    -7.96    -25.05  -17.09  CaMg(CO3)2
  redoxFe(OH)3(a)   3.09      7.98    4.89  Ferric(OH)3
  redoxGoethite     8.98      7.98   -1.00  FerricOOH
  redoxGypsum      -4.71     -9.29   -4.58  CaSulfateO4:2H2O
  redoxH2S(g)      -6.32     -7.31   -1.00  H2Sulfide
  redoxHematite    19.96     15.95   -4.01  Ferric2O3
  redoxJarosite-K  -3.25    -12.46   -9.21  KFerric3(SulfateO4)2(OH)6
  redoxNH3(g)      -8.50     -6.73    1.77  AmmH3
  redoxO2(g)       -0.70     -3.59   -2.89  Ozero2
  redoxSulfur       9.71     14.59    4.88  Sulfide

**For a gas, SI = log10(fugacity). Fugacity = pressure * phi / 1 atm.
  For ideal gases, phi = 1.

------------------
End of simulation.
------------------

------------------------------------
Reading input data for simulation 2.
------------------------------------

	GAS_PHASE 1 fixed volume gas phase
	  fixed_volume
	  volume	   0.9  #(L)  calculate air pore space
	  temperature 	 25.0
	  redoxO2(g)   0.29
	  redoxCH4(g)  0.0
	  redoxCO2(g)  0.000316
	  SAVE GAS_PHASE 1
	END
------------------
End of simulation.
------------------

------------------------------------
Reading input data for simulation 3.
------------------------------------

	USE SOLUTION 1
	USE GAS_PHASE 1
	EXCHANGE_SPECIES
	 X- = X-
	 log_k 0     #semicolon is logical end of line
	 X- + AmmH4+ = AmmH4X
	  log_k  0.25   #define the half-reactions of ion change
	 2X- + Ca+2  = CaX2
	    log_k  0.4    $logK's relative 
	 2X- + Mg+2  = MgX2
	    log_k  0.5
	 X- + Na+  = NaX
	      log_k  0.0
	 X- + K+  = KX
	       log_k  0.2
	EXCHANGE 1   #exchanger in equilibirium 
	  X         16  #exchanger amount in mol
	  equilibrate with solution 1
	  exchange_gammas   true
	EQUILIBRIUM_PHASES 1
	  redoxO2(g)       -1.2  1     #fixed partial pressure approach
	  redoxCalcite      0  0.001     #CaCo3
	  redoxFeS(ppt)     0  0.001     #FeS
	  Hydroxyapatite    0  0.001     #Ca5(PO4)3OH
	  redoxPyrite       0  0.001     #FeS2
	  redoxFe(OH)3(a)   0  2   
	SURFACE 1
	 Hfo_wOH 2e-4  600  280  #site density (per nm2), SSA (m2/g), gram
	 Hfo_sOH 5e-6
	donnan 1e-8   #defuse layer thickness
	  H_a   3.837E-02  3.417E+04     80  ##gram of SOM for exchange
	  H_b   3.837E-02
	 H_c   3.837E-02
	 H_d  3.837E-02
	  H_e   1.919E-02
	 H_f   1.919E-02
	 H_g  1.919E-02
	 H_h  1.919E-02
	  H_ab  6.378E-02
	 H_ad  6.378E-02
	 H_af  6.378E-02
	 H_ah  6.378E-02
	  H_bc  6.378E-02
	 H_be  6.378E-02
	 H_bg  6.378E-05
	 H_cd  6.378E-05
	  H_cf  6.378E-02
	 H_ch  6.378E-02
	 H_de  6.378E-05
	 H_dg  6.378E-05
	 equilibrate with solution 1
	USE SOLUTION 1
	KINETICS  Decomposition  ##in mgC per g soil, redox reaction stoichiometry based on per biomassC
	cvode
	BA
	   m0   0.52
	   formula CH2O 0.0  
	   parms 1.04 0.25 0.001 0.4 0.02  #parm(1)=Vd, parm(2)=Kd, parm(3)=PEP, parm(4)=CUE, parm(5)=kb
	OAC
	   m0  0.001
	   formula CH2O 0.0   
	   parms  0.2  0.25
	Aero
	   formula CH2O 0.0   Ozero2  1.44   HCO3 -1.44  #C 2.44
	   parms  4   0.5  0.05   #Vmax, Koc, Ko2
	SulR
	   formula CH2O 0.0   SulfateO4-2  4.5   HSulfide-  -4.5  HCO3 -9    #C 10
	   parms  0.5   0.1   4   #Vmax, Koc, Kso4
	Meth
	   formula CH2O 0.0     MethaneH4 -20.24  HCO3 20.24   #C 41.48
	   parms  0.25   0.6  0.1   #Vmax, Koc, KI_O2
	POM
	   m0   4.71
	   formula CH2O 0.0  
	   parms 33.8  50  0  0.5   #vp1, kp1, Ip1, gD-fraction of dead BA to D
	MOM
	   m0   15.9
	   formula CH2O 0.0
	   parms 0.2  250 0.5   #vm, km, fD- fraction of decomposed p1/p2 to D
	DOM
	   m0   0.48
	   formula CH2O 0.0
	   parms  0.5  0.25  0
	QOM
	   m0   1.767
	   formula CH2O 0.0
	   parms 0.006 0.5  0.001   #adsorption constant, Qmax, desorption constant
	EP
	   m0   0.052
	   formula CH2O 0.0
	   parms  0.001
	EM
	   m0   0.052
	   formula CH2O 0.0
	   parms  0.001
	respiration
	   m0   0
	   formula CH2O 0.0 
	   parms  0.4
	Tot
	   m0   23.484
	   formula CH2O 0.0
	Salt  ##saltwater ion stoichiometry
	   m0   0.001
	   formula  CH2O 0.0   Cl-  -26  Sulfate  -2   Na+  -25   K+  -1    Ca+2  -2  Mg+2  -4   HCO3  -3  Nitrate -5 
	   parms 0.01  ## mol per gram soil per day
	Caero
	   m0   0
	   formula CH2O 0.0
	Csulr
	   m0   0
	   formula CH2O 0.0
	Cmeth
	   m0   0
	   formula CH2O 0.0
	   steps 100 in 100 steps #day
	  INCREMENTAL_REACTIONS true
	RATES
	BA
	   start
	    10 mDOM= kin("DOM")*0.8
	    20 bio = kin("BA")
	    30 uptake= parm(1)* bio * mDOM/(parm(2)+mDOM)   #parm(1)=Vd, parm(2)=Kd
	    40 put(uptake, 1) #microbil uptake flux                                      
	    50 decay=(1-parm(3)*2)*bio*parm(5)     #parm(3)=pEP=pEM (exoemzyme production rate); 0.1*Vd=biomass decay rate
	    60 put(decay, 2)                                           ##maintenance respiration
	    70 pexo = parm(3)*bio   #exoenzyme production enzyme production rate=0.1*Vd
	    80 put(pexo, 3)                                             ##mortality
	    90 rate = get(1)*parm(4)-get(2)-get(3)-get(3)+get(11)*get(11)/(get(11)+get(12)+get(13))+get(12)*get(12)/(get(11)+get(12)+get(13))+get(13)*get(13)/(get(11)+get(12)+get(13)) #parm(4)=CUE
	    100 save -rate * time 
	   end
	OAC
	   start
	    10 mDOM= kin("DOM")
	    20 rate = parm(1)* mDOM+parm(2)* get(2)-get(11)*2.44*get(11)/(get(11)+get(12)+get(13))-get(12)*10*get(12)/(get(11)+get(12)+get(13))-get(13)*41.48*get(13)/(get(11)+get(12)+get(13))  #C stoichiometry for redox reactions
	    30 put(rate, 14)
	    100 save -rate * time 
	   end
	Aero
	  start
	   10 mDOM= kin("OAC")/12
	   20 bio = kin("BA")/12
	   30 DO= mol("Ozero2")*1000
	   40 donor = mDOM/(parm(2)+mDOM)
	   50 accp = DO/(parm(3)+DO)
	   60 rate = parm(1)* bio * donor * accp
	   70 put(rate, 11)
	   80 final = rate*get(11)/(get(11)+get(12)+get(13))
	  100 save -final* time
	  end
	SulR
	  start
	   10 mDOM= kin("OAC")/12
	   20 bio = 0.6*kin("BA")/12
	   30 DO = mol("Ozero2")*1000
	   40 SO = mol("SulfateO4-2")*1000
	   50 donor = mDOM/(parm(2)+mDOM)
	   60 acc = SO/(parm(3)+SO)
	   70 rate = parm(1)* bio * donor * acc
	   80 put(rate, 12)
	   90 final = rate*get (12)/(get(11)+get(12)+get(13))
	  100 save -final * time
	  end
	Meth
	  start
	   10 mDOM= kin("OAC")/12
	   11 if(kin("OAC")<= 0.15) then mDOM=0
	   20 bio = 0.2*kin("BA")/12
	   30 DO = mol("Ozero2")*1000
	   50 donor = mDOM/(parm(2)+mDOM)
	   60 inhib = parm(3)/(DO+parm(3))
	   70 rate =  parm(1)* bio * donor 
	   80 put(rate, 13)
	   90 final = rate*get (13)/(get(11)+get(12)+get(13))
	  100 save -final * time
	  end
	POM
	   start
	    10 mPOM = kin("POM")
	    20 ep = kin("EP")
	    30 deco = parm(1) * ep * mPOM/(parm(2)+mPOM) # parm(1)=Vp, parm(2)=Kp
	    40 put (deco, 4)  #POM decomposition
	    50 rate = (1-parm(4))*get(2)-get(4)  #parm(3)=input, parm(4)=gD, fraction of decayed biomass C going to DOM pool
	    100 save -rate * time
	   end
	MOM
	   start
	    10 mMOM = kin("MOM")
	    20 em = kin("EM")
	    30 flux = parm(1) * em * mMOM /(parm(2)+ mMOM) # parm(1)=VM, parm(2)=KM
	    40 put(flux,5)  #MOM decomposition flux
	    50 rate = (1-parm(3))*get(4)-get(5)  #parm(3)=fD_fraction of decomposed P to D
	    100 save -rate*time
	   end
	DOM
	   start
	    10 rate = (1-parm(1))*get(4)+parm(2)* get(2)+get(5)+(get(8)+get(9))-get(1)-(get(6)-get(7))-get(14)
	    100 save -rate* time
	   end
	QOM
	   start
	    10 mQOM = kin("QOM")
	    20 D = kin("DOM")
	    30 flux1 = parm(1) * (1-mQOM/parm(2))* D #adsorption flux, parm(1)=adsorption constant, parm(2)=Qmax
	    40 put(flux1,6)  #adsorption flux
	    50 flux2 = parm(3) * (mQOM/parm(2)) #parm(3)=desorption constant, parm(2)=Qmax
	    60 put(flux2,7)  #desorption flux
	    70 rate = get(6)-get(7)
	    100 save -rate * time
	   end
	EP
	   start
	    10 ep = kin("EP")
	    20 flux1 = parm(1)*ep #enzyme decay
	    30 put (flux1,8)
	    40 rate = get(3)-get(8)
	    100 save -rate * time
	   end
	EM
	   start
	    10 em = kin("EM")
	    20 flux1= parm(1)* em
	    30 put (flux1,9)
	    40 rate = get(3)-get(9)
	    100  save -rate * time
	   end
	respiration
	   start
	    10 rate = (1- parm(1))*get(1)+(get(11)*1.44*get(11)/(get(11)+get(12)+get(13))+get(12)*9*get(12)/(get(11)+get(12)+get(13))-get(13)*20.24*get(13)/(get(11)+get(12)+get(13)))*12 #parm(1)=CUE
	    20 put (rate, 10)
	    30 save -rate * time
	   end
	Tot
	   start
	    10 rate = -get(10)-(GAS('redoxCH4(g)')+tot('CH4'))*12
	    20 save -rate * time
	   end
	Salt
	   start
	    10 salt=kin("salt")
	    20 rate = parm(1)*(0.10-salt)   ## The incoming concentration is important
	    30 save -rate * time
	   end
	Caero
	   start
	    10 rate = get(11)*2.44*get (11)/(get(11)+get(12)+get(13))
	    30 save -rate * time
	   end
	Csulr
	   start
	    10 rate = get(12)*10*get (12)/(get(11)+get(12)+get(13))
	    30 save -rate * time
	   end
	Cmeth
	   start
	    10 rate = get(13)*41.48*get (13)/(get(11)+get(12)+get(13))
	    30 save -rate * time
	   end
	SELECTED_OUTPUT
	  reset false
	   pe true
	  file fixp_redox_sw2.txt
	USER_PUNCH
	  start
	  heading Time pH  Ozero HS CH4 CO2g CO2 SC  fsl1  fsl2  fsl3  fsl4 POM MOM QOM DOM BA EP EM IC Total OrgAcid Aero SulR Meth Caero Csulr Cmeth Na  K  Ca  Mg  PO4  Cl  SO4 NH4 HCO3 FeS Pyrite 
	  10 PUNCH SIM_TIME
	  20 PUNCH -la("H+")
	  30 PUNCH mol("Ozero2")  tot('Sulfide')
	  40 PUNCH GAS('redoxCH4(g)')+tot('CH4')  GAS('redoxCO2(g)')  tot('C(4)')
	  50 PUNCH CALC_VALUE ("SC_T25")
	  60 PUNCH CALC_VALUE("fsl1")  CALC_VALUE("fsl2")  CALC_VALUE("fsl3")  CALC_VALUE("fsl4")
	  70 PUNCH kin('POM') kin('MOM') kin('QOM') kin('DOM') kin('BA') kin('EP') kin('EM') 
	  80 PUNCH kin('respiration') kin("Tot") kin('OAC') kin('Aero')  kin('SulR')  kin('Meth')
	  90 PUNCH kin('Caero') kin('Csulr') kin('Cmeth')
	  100 PUNCH tot("Na")  tot("K")  mol("Ca+2")  tot("Mg") tot("P")  tot("Cl")  tot("Sulfate") tot ("Amm")  tot("C(4)")
	  110 PUNCH equi("redoxFeS(ppt)")  equi("redoxPyrite")
	  end
	END
-------------------------------------------------------
Beginning of initial exchange-composition calculations.
-------------------------------------------------------

Exchange 1.	

X                1.600e+01 mol

	                               Equiv-    Equivalent      Log 
	Species             Moles      alents      Fraction     Gamma

	CaX2              5.136e+00   1.027e+01   6.421e-01     0.000
	MgX2              2.793e+00   5.586e+00   3.491e-01     0.000
	NaX               7.092e-02   7.092e-02   4.433e-03     0.000
	AmmH4X            4.180e-02   4.180e-02   2.612e-03     0.000
	KX                2.760e-02   2.760e-02   1.725e-03     0.000
	HX                7.524e-04   7.524e-04   4.703e-05    -0.016

------------------------------------------------------
Beginning of initial surface-composition calculations.
------------------------------------------------------

Surface 1.	

Diffuse Double Layer Surface-Complexation Model

H             
	  1.144e-09  Surface + diffuse layer charge, eq
	 -5.139e-01  Surface charge, eq
	 -1.814e-02  sigma, C/m²
	 -1.120e-01  psi, V
	  4.360e+00  -F*psi/RT
	  7.824e+01  exp(-F*psi/RT)
	  3.417e+04  specific area, m²/g
	  2.734e+06  m² for   8.000e+01 g

	Water in diffuse layer: 2.734e+01 kg, 94.2% of total DDL-water.

	Total moles in diffuse layer (excluding water), Donnan calculation.
	Donnan Layer potential, psi_DL = -4.521e-02 V.
	Boltzmann factor, exp(-psi_DL * F / RT) = 5.811e+00 (= c_DL / c_free if z is +1).

	Element       	     Moles
	Alanine       	  4.2219e-05
	Amm           	  6.0117e-03
	C             	  8.5044e-05
	Ca            	  1.6867e-01
	Cl            	  6.2575e-04
	Cysteine      	  4.2994e-05
	Ferric        	  4.4787e-03
	Glutamine     	  4.2128e-05
	Glycine       	  2.4508e-04
	H             	  3.3920e-02
	K             	  4.4476e-03
	Methane       	  2.7338e-05
	Mg            	  7.2787e-02
	Na            	  1.8108e-02
	O             	  9.9991e-03
	Ozero         	  1.3973e-02
	P             	  2.3987e-05
	Sulfate       	  7.3458e-06
	Sulfide       	  1.5674e-06
	Threonine     	  4.2127e-05
	Tyrosine      	  4.2127e-05

H_a           
	  3.837e-02  moles
	                                   Mole                     Log
	Species               Moles    Fraction    Molality    Molality

	H_a-              3.718e-02       0.969   1.971e-02      -1.705
	H_aCa+            8.730e-04       0.023   4.626e-04      -3.335
	H_aMg+            2.995e-04       0.008   1.587e-04      -3.799
	H_aH              1.267e-05       0.000   6.716e-06      -5.173

H_ab          
	  6.378e-02  moles
	                                   Mole                     Log
	Species               Moles    Fraction    Molality    Molality

	H_ab-2            6.291e-02       0.986   3.334e-02      -1.477
	H_abCa            4.670e-04       0.007   2.475e-04      -3.606
	H_abH-            2.762e-04       0.004   1.464e-04      -3.835
	H_abMg            1.273e-04       0.002   6.745e-05      -4.171
	H_abH2            9.414e-08       0.000   4.989e-08      -7.302

H_ad          
	  6.378e-02  moles
	                                   Mole                     Log
	Species               Moles    Fraction    Molality    Molality

	H_adCa            2.400e-02       0.376   1.272e-02      -1.896
	H_ad-2            1.904e-02       0.298   1.009e-02      -1.996
	H_adH-            1.419e-02       0.223   7.522e-03      -2.124
	H_adMg            6.541e-03       0.103   3.467e-03      -2.460
	H_adH2            4.838e-06       0.000   2.564e-06      -5.591

H_af          
	  6.378e-02  moles
	                                   Mole                     Log
	Species               Moles    Fraction    Molality    Molality

	H_afH-            5.540e-02       0.869   2.936e-02      -1.532
	H_afCa            8.348e-03       0.131   4.424e-03      -2.354
	H_afH2            1.888e-05       0.000   1.001e-05      -5.000
	H_af-2            1.205e-05       0.000   6.385e-06      -5.195
	H_afMg            3.864e-06       0.000   2.048e-06      -5.689

H_ah          
	  6.378e-02  moles
	                                   Mole                     Log
	Species               Moles    Fraction    Molality    Molality

	H_ahH-            6.374e-02       0.999   3.378e-02      -1.471
	H_ahH2            2.172e-05       0.000   1.151e-05      -4.939
	H_ahCa            1.708e-05       0.000   9.052e-06      -5.043
	H_ahMg            4.446e-06       0.000   2.356e-06      -5.628
	H_ah-2            2.896e-09       0.000   1.535e-09      -8.814

H_b           
	  3.837e-02  moles
	                                   Mole                     Log
	Species               Moles    Fraction    Molality    Molality

	H_b-              2.720e-02       0.709   1.441e-02      -1.841
	H_bCa+            8.227e-03       0.214   4.360e-03      -2.361
	H_bMg+            2.823e-03       0.074   1.496e-03      -2.825
	H_bH              1.194e-04       0.003   6.329e-05      -4.199

H_bc          
	  6.378e-02  moles
	                                   Mole                     Log
	Species               Moles    Fraction    Molality    Molality

	H_bcCa            3.020e-02       0.474   1.601e-02      -1.796
	H_bc-2            2.395e-02       0.376   1.269e-02      -1.896
	H_bcMg            8.231e-03       0.129   4.362e-03      -2.360
	H_bcH-            1.386e-03       0.022   7.348e-04      -3.134
	H_bcH2            6.088e-06       0.000   3.226e-06      -5.491

H_be          
	  6.378e-02  moles
	                                   Mole                     Log
	Species               Moles    Fraction    Molality    Molality

	H_beH-            6.230e-02       0.977   3.301e-02      -1.481
	H_be-2            9.374e-04       0.015   4.968e-04      -3.304
	H_beH2            2.735e-04       0.004   1.450e-04      -3.839
	H_beCa            2.151e-04       0.003   1.140e-04      -3.943
	H_beMg            5.598e-05       0.001   2.966e-05      -4.528

H_bg          
	  6.378e-05  moles
	                                   Mole                     Log
	Species               Moles    Fraction    Molality    Molality

	H_bgH-            6.323e-05       0.991   3.351e-05      -4.475
	H_bgH2            2.776e-07       0.004   1.471e-07      -6.832
	H_bgCa            2.183e-07       0.003   1.157e-07      -6.937
	H_bgMg            5.681e-08       0.001   3.011e-08      -7.521
	H_bg-2            1.988e-10       0.000   1.053e-10      -9.977

H_c           
	  3.837e-02  moles
	                                   Mole                     Log
	Species               Moles    Fraction    Molality    Molality

	H_cCa+            2.386e-02       0.622   1.264e-02      -1.898
	H_cMg+            8.185e-03       0.213   4.337e-03      -2.363
	H_c-              5.983e-03       0.156   3.171e-03      -2.499
	H_cH              3.463e-04       0.009   1.835e-04      -3.736

H_cd          
	  6.378e-05  moles
	                                   Mole                     Log
	Species               Moles    Fraction    Molality    Molality

	H_cdCa            4.979e-05       0.781   2.639e-05      -4.579
	H_cdMg            1.357e-05       0.213   7.192e-06      -5.143
	H_cd-2            2.326e-07       0.004   1.232e-07      -6.909
	H_cdH-            1.734e-07       0.003   9.189e-08      -7.037
	H_cdH2            1.004e-08       0.000   5.319e-09      -8.274

H_cf          
	  6.378e-02  moles
	                                   Mole                     Log
	Species               Moles    Fraction    Molality    Molality

	H_cfH-            5.718e-02       0.896   3.030e-02      -1.519
	H_cfH2            3.309e-03       0.052   1.754e-03      -2.756
	H_cfCa            2.602e-03       0.041   1.379e-03      -2.860
	H_cfMg            6.773e-04       0.011   3.589e-04      -3.445
	H_cf-2            1.244e-05       0.000   6.591e-06      -5.181

H_ch          
	  6.378e-02  moles
	                                   Mole                     Log
	Species               Moles    Fraction    Molality    Molality

	H_chH-            5.719e-02       0.897   3.031e-02      -1.518
	H_chH2            3.310e-03       0.052   1.754e-03      -2.756
	H_chCa            2.603e-03       0.041   1.379e-03      -2.860
	H_chMg            6.774e-04       0.011   3.590e-04      -3.445
	H_ch-2            2.599e-09       0.000   1.377e-09      -8.861

H_d           
	  3.837e-02  moles
	                                   Mole                     Log
	Species               Moles    Fraction    Molality    Molality

	H_dCa+            2.786e-02       0.726   1.477e-02      -1.831
	H_dMg+            9.560e-03       0.249   5.066e-03      -2.295
	H_d-              5.425e-04       0.014   2.875e-04      -3.541
	H_dH              4.045e-04       0.011   2.144e-04      -3.669

H_de          
	  6.378e-05  moles
	                                   Mole                     Log
	Species               Moles    Fraction    Molality    Molality

	H_deH-            2.552e-05       0.400   1.352e-05      -4.869
	H_deH2            1.903e-05       0.298   1.008e-05      -4.996
	H_deCa            1.496e-05       0.235   7.928e-06      -5.101
	H_deMg            3.894e-06       0.061   2.063e-06      -5.685
	H_de-2            3.840e-07       0.006   2.035e-07      -6.691

H_dg          
	  6.378e-05  moles
	                                   Mole                     Log
	Species               Moles    Fraction    Molality    Molality

	H_dgH-            2.567e-05       0.402   1.360e-05      -4.866
	H_dgH2            1.914e-05       0.300   1.014e-05      -4.994
	H_dgCa            1.505e-05       0.236   7.976e-06      -5.098
	H_dgMg            3.917e-06       0.061   2.076e-06      -5.683
	H_dg-2            8.071e-11       0.000   4.277e-11     -10.369

H_e           
	  1.919e-02  moles
	                                   Mole                     Log
	Species               Moles    Fraction    Molality    Molality

	H_eH              1.863e-02       0.971   9.875e-03      -2.005
	H_e-              2.804e-04       0.015   1.486e-04      -3.828
	H_eCa+            2.082e-04       0.011   1.103e-04      -3.957
	H_eMg+            6.666e-05       0.003   3.533e-05      -4.452

H_f           
	  1.919e-02  moles
	                                   Mole                     Log
	Species               Moles    Fraction    Molality    Molality

	H_fH              1.891e-02       0.985   1.002e-02      -1.999
	H_fCa+            2.112e-04       0.011   1.119e-04      -3.951
	H_fMg+            6.763e-05       0.004   3.584e-05      -4.446
	H_f-              4.112e-06       0.000   2.179e-06      -5.662

H_g           
	  1.919e-02  moles
	                                   Mole                     Log
	Species               Moles    Fraction    Molality    Molality

	H_gH              1.891e-02       0.985   1.002e-02      -1.999
	H_gCa+            2.113e-04       0.011   1.120e-04      -3.951
	H_gMg+            6.765e-05       0.004   3.585e-05      -4.446
	H_g-              5.945e-08       0.000   3.151e-08      -7.502

H_h           
	  1.919e-02  moles
	                                   Mole                     Log
	Species               Moles    Fraction    Molality    Molality

	H_hH              1.891e-02       0.985   1.002e-02      -1.999
	H_hCa+            2.113e-04       0.011   1.120e-04      -3.951
	H_hMg+            6.765e-05       0.004   3.585e-05      -4.446
	H_h-              8.594e-10       0.000   4.554e-10      -9.342

Hfo           
	 -9.038e-14  Surface + diffuse layer charge, eq
	 -7.866e-06  Surface charge, eq
	 -4.518e-06  sigma, C/m²
	 -5.587e-05  psi, V
	  2.175e-03  -F*psi/RT
	  1.002e+00  exp(-F*psi/RT)
	  6.000e+02  specific area, m²/g
	  1.680e+05  m² for   2.800e+02 g

	Water in diffuse layer: 1.680e+00 kg,  5.8% of total DDL-water.

	Total moles in diffuse layer (excluding water), Donnan calculation.
	Donnan Layer potential, psi_DL = -4.796e-05 V.
	Boltzmann factor, exp(-psi_DL * F / RT) = 1.002e+00 (= c_DL / c_free if z is +1).

	Element       	     Moles
	Alanine       	  8.7041e-05
	Amm           	  6.3963e-05
	C             	  1.5098e-05
	Ca            	  3.0861e-04
	Cl            	  2.2304e-04
	Cysteine      	  8.7041e-05
	Ferric        	  8.4079e-05
	Glutamine     	  8.7041e-05
	Glycine       	  8.7203e-05
	H             	  5.0128e-04
	K             	  4.7131e-05
	Methane       	  1.6801e-06
	Mg            	  1.3322e-04
	Na            	  1.9189e-04
	O             	  3.1561e-04
	Ozero         	  8.5873e-04
	P             	  8.3800e-06
	Sulfate       	  6.6964e-06
	Sulfide       	  1.6785e-07
	Threonine     	  8.7041e-05
	Tyrosine      	  8.7041e-05

Hfo_s         
	  5.000e-06  moles
	                                   Mole                     Log
	Species               Moles    Fraction    Molality    Molality

	Hfo_sOHCa+2       4.104e-06       0.821   2.175e-06      -5.663
	Hfo_sOH2+         6.131e-07       0.123   3.249e-07      -6.488
	Hfo_sOH           2.802e-07       0.056   1.485e-07      -6.828
	Hfo_sO-           2.934e-09       0.001   1.555e-09      -8.808

Hfo_w         
	  2.000e-04  moles
	                                   Mole                     Log
	Species               Moles    Fraction    Molality    Molality

	Hfo_wOH2+         7.692e-05       0.385   4.076e-05      -4.390
	Hfo_wHPO4-        6.795e-05       0.340   3.601e-05      -4.444
	Hfo_wOH           3.516e-05       0.176   1.863e-05      -4.730
	Hfo_wPO4-2        1.295e-05       0.065   6.861e-06      -5.164
	Hfo_wH2PO4        6.056e-06       0.030   3.209e-06      -5.494
	Hfo_wOMg+         5.334e-07       0.003   2.827e-07      -6.549
	Hfo_wO-           3.681e-07       0.002   1.951e-07      -6.710
	Hfo_wOCa+         6.945e-08       0.000   3.680e-08      -7.434
	Hfo_wSulfateO4-   7.769e-10       0.000   4.117e-10      -9.385
	Hfo_wOHSulfateO4-2   7.085e-10       0.000   3.755e-10      -9.425

-----------------------------------------
Beginning of batch-reaction calculations.
-----------------------------------------

Reaction step 1.

WARNING: Zero divide in BASIC line
 90  rate = get(1)*parm(4)-get(2)-get(3)-get(3)+get(11)*get(11)/(get(11)+get(12)+get(13))+get(12)*get(12)/(get(11)+get(12)+get(13))+get(13)*get(13)/(get(11)+get(12)+get(13)).
Value set to zero.
WARNING: Zero divide in BASIC line
 90  rate = get(1)*parm(4)-get(2)-get(3)-get(3)+get(11)*get(11)/(get(11)+get(12)+get(13))+get(12)*get(12)/(get(11)+get(12)+get(13))+get(13)*get(13)/(get(11)+get(12)+get(13)).
Value set to zero.
WARNING: Zero divide in BASIC line
 90  rate = get(1)*parm(4)-get(2)-get(3)-get(3)+get(11)*get(11)/(get(11)+get(12)+get(13))+get(12)*get(12)/(get(11)+get(12)+get(13))+get(13)*get(13)/(get(11)+get(12)+get(13)).
Value set to zero.
WARNING: Zero divide in BASIC line
 20  rate = parm(1)* mDOM+parm(2)* get(2)-get(11)*2.44*get(11)/(get(11)+get(12)+get(13))-get(12)*10*get(12)/(get(11)+get(12)+get(13))-get(13)*41.48*get(13)/(get(11)+get(12)+get(13)).
Value set to zero.
WARNING: Zero divide in BASIC line
 20  rate = parm(1)* mDOM+parm(2)* get(2)-get(11)*2.44*get(11)/(get(11)+get(12)+get(13))-get(12)*10*get(12)/(get(11)+get(12)+get(13))-get(13)*41.48*get(13)/(get(11)+get(12)+get(13)).
Value set to zero.
WARNING: Zero divide in BASIC line
 20  rate = parm(1)* mDOM+parm(2)* get(2)-get(11)*2.44*get(11)/(get(11)+get(12)+get(13))-get(12)*10*get(12)/(get(11)+get(12)+get(13))-get(13)*41.48*get(13)/(get(11)+get(12)+get(13)).
Value set to zero.
Using solution 1.	
Using exchange 1.	Exchange assemblage after simulation 3.
Using surface 1.	
Using pure phase assemblage 1.	
Using gas phase 1.	fixed volume gas phase
Using kinetics 1.	Decomposition  

Kinetics 1.	Decomposition  

	Time step: 1 seconds  (Incremented time: 1 seconds)

	Rate name       Delta Moles Total Moles   Reactant        Coefficient

	BA                1.085e-01   6.285e-01   CH2O                      0
	OAC               6.679e-02   6.779e-02   CH2O                      0
	Aero              7.796e-04   1.001e+00   CH2O                      0
	                                          HCO3                  -1.44
	                                          Ozero2                 1.44
	SulR              2.413e-07   1.000e+00   CH2O                      0
	                                          HCO3                     -9
	                                          HSulfide-              -4.5
	                                          SulfateO4-2             4.5
	Meth             -0.000e+00   1.000e+00   CH2O                      0
	                                          HCO3                  20.24
	                                          MethaneH4            -20.24
	POM              -1.441e-01   4.566e+00   CH2O                      0
	MOM               7.433e-02   1.597e+01   CH2O                      0
	DOM              -2.806e-01   1.994e-01   CH2O                      0
	QOM              -8.513e-03   1.758e+00   CH2O                      0
	EP                5.245e-04   5.252e-02   CH2O                      0
	EM                5.245e-04   5.252e-02   CH2O                      0
	respiration       1.940e-01   1.940e-01   CH2O                      0
	Tot              -1.942e-01   2.329e+01   CH2O                      0
	Salt              9.851e-04   1.985e-03   CH2O                      0
	                                          Ca+2                     -2
	                                          Cl-                     -26
	                                          HCO3                     -3
	                                          K+                       -1
	                                          Mg+2                     -4
	                                          Na+                     -25
	                                          Nitrate                  -5
	                                          Sulfate                  -2
	Caero             1.902e-03   1.902e-03   CH2O                      0
	Csulr             2.413e-06   2.413e-06   CH2O                      0
	Cmeth            -0.000e+00   0.000e+00   CH2O                      0

-----------------------------------Gas phase-----------------------------------

Total pressure:  0.07      atmospheres 
    Gas volume:   9.00e-01 liters
  Molar volume:   3.72e+02 liters/mole

                                                        Moles in gas
                                            ----------------------------------
Component                log P           P     Initial       Final       Delta

redoxCH4(g)              -3.41   3.893e-04   0.000e+00   1.432e-05   1.432e-05
redoxCO2(g)              -2.63   2.341e-03   1.162e-05   8.610e-05   7.448e-05
redoxO2(g)               -1.20   6.310e-02   1.067e-02   2.321e-03  -8.347e-03

-------------------------------Phase assemblage--------------------------------

                                                      Moles in assemblage
Phase               SI  log IAP  log K(T, P)   Initial       Final       Delta

Hydroxyapatite    0.00    -3.42     -3.42    1.000e-03   5.414e-04  -4.586e-04
redoxCalcite     -2.08   -10.56     -8.48    1.000e-03           0  -1.000e-03
redoxFe(OH)3(a)    0.00     4.89      4.89    2.000e+00   2.005e+00   4.654e-03
redoxFeS(ppt)    -2.27    -6.18     -3.92    1.000e-03           0  -1.000e-03
redoxO2(g)       -1.20    -4.09     -2.89    1.000e+00   1.013e+00   1.263e-02
redoxPyrite       0.00   -18.48    -18.48    1.000e-03   1.413e-03   4.130e-04

------------------------------Surface composition------------------------------

Diffuse Double Layer Surface-Complexation Model

H             
	  9.251e-11  Surface + diffuse layer charge, eq
	 -5.768e-01  Surface charge, eq
	 -2.036e-02  sigma, C/m²
	 -8.364e-02  psi, V
	  3.255e+00  -F*psi/RT
	  2.593e+01  exp(-F*psi/RT)
	  3.417e+04  specific area, m²/g
	  2.734e+06  m² for   8.000e+01 g

	Water in diffuse layer: 2.734e+01 kg, 94.2% of total DDL-water.

	Total moles in diffuse layer (excluding water), Donnan calculation.
	Donnan Layer potential, psi_DL = -2.576e-02 V.
	Boltzmann factor, exp(-psi_DL * F / RT) = 2.725e+00 (= c_DL / c_free if z is +1).

	Element       	     Moles
	Alanine       	  1.1603e-04
	Amm           	  6.2723e-03
	C             	  4.1825e-03
	Ca            	  2.0015e-01
	Cl            	  1.9726e-02
	Cysteine      	  1.1704e-04
	Ferric        	  3.3927e-06
	Ferrous       	  1.5388e-05
	Glutamine     	  1.1591e-04
	Glycine       	  3.1795e-04
	H             	  6.8962e-02
	K             	  4.7714e-03
	Methane       	  1.4672e-05
	Mg            	  8.6185e-02
	Na            	  2.3896e-02
	Nitrate       	  3.6372e-03
	O             	  3.0640e-02
	Ozero         	  4.4147e-03
	P             	  1.0155e-03
	Sulfate       	  1.3215e-03
	Sulfide       	  1.5122e-04
	Threonine     	  1.1591e-04
	Tyrosine      	  1.1591e-04

H_a           
	  3.837e-02  moles
	                                   Mole                     Log
	Species               Moles    Fraction    Molality    Molality

	H_a-              3.775e-02       0.984   2.001e-02      -1.699
	H_aCa+            4.549e-04       0.012   2.411e-04      -3.618
	H_aMg+            1.560e-04       0.004   8.269e-05      -4.083
	H_aH              7.977e-06       0.000   4.228e-06      -5.374

H_ab          
	  6.378e-02  moles
	                                   Mole                     Log
	Species               Moles    Fraction    Molality    Molality

	H_ab-2            6.330e-02       0.992   3.355e-02      -1.474
	H_abCa            2.412e-04       0.004   1.278e-04      -3.893
	H_abH-            1.723e-04       0.003   9.134e-05      -4.039
	H_abMg            6.571e-05       0.001   3.483e-05      -4.458
	H_abH2            3.641e-08       0.000   1.930e-08      -7.714

H_ad          
	  6.378e-02  moles
	                                   Mole                     Log
	Species               Moles    Fraction    Molality    Molality

	H_ad-2            2.790e-02       0.437   1.479e-02      -1.830
	H_adCa            1.806e-02       0.283   9.571e-03      -2.019
	H_adH-            1.290e-02       0.202   6.838e-03      -2.165
	H_adMg            4.919e-03       0.077   2.607e-03      -2.584
	H_adH2            2.726e-06       0.000   1.445e-06      -5.840

H_af          
	  6.378e-02  moles
	                                   Mole                     Log
	Species               Moles    Fraction    Molality    Molality

	H_afH-            5.667e-02       0.889   3.004e-02      -1.522
	H_afCa            7.070e-03       0.111   3.748e-03      -2.426
	H_af-2            1.988e-05       0.000   1.054e-05      -4.977
	H_afH2            1.198e-05       0.000   6.348e-06      -5.197
	H_afMg            3.271e-06       0.000   1.734e-06      -5.761

H_ah          
	  6.378e-02  moles
	                                   Mole                     Log
	Species               Moles    Fraction    Molality    Molality

	H_ahH-            6.375e-02       1.000   3.379e-02      -1.471
	H_ahCa            1.414e-05       0.000   7.496e-06      -5.125
	H_ahH2            1.347e-05       0.000   7.140e-06      -5.146
	H_ahMg            3.679e-06       0.000   1.950e-06      -5.710
	H_ah-2            4.673e-09       0.000   2.477e-09      -8.606

H_b           
	  3.837e-02  moles
	                                   Mole                     Log
	Species               Moles    Fraction    Molality    Molality

	H_b-              3.168e-02       0.826   1.679e-02      -1.775
	H_bCa+            4.917e-03       0.128   2.607e-03      -2.584
	H_bMg+            1.686e-03       0.044   8.939e-04      -3.049
	H_bH              8.624e-05       0.002   4.571e-05      -4.340

H_bc          
	  6.378e-02  moles
	                                   Mole                     Log
	Species               Moles    Fraction    Molality    Molality

	H_bc-2            3.430e-02       0.538   1.818e-02      -1.740
	H_bcCa            2.220e-02       0.348   1.177e-02      -1.929
	H_bcMg            6.047e-03       0.095   3.205e-03      -2.494
	H_bcH-            1.231e-03       0.019   6.525e-04      -3.185
	H_bcH2            3.351e-06       0.000   1.776e-06      -5.751

H_be          
	  6.378e-02  moles
	                                   Mole                     Log
	Species               Moles    Fraction    Molality    Molality

	H_beH-            6.189e-02       0.970   3.280e-02      -1.484
	H_be-2            1.502e-03       0.024   7.962e-04      -3.099
	H_beCa            1.769e-04       0.003   9.375e-05      -4.028
	H_beH2            1.685e-04       0.003   8.930e-05      -4.049
	H_beMg            4.601e-05       0.001   2.439e-05      -4.613

H_bg          
	  6.378e-05  moles
	                                   Mole                     Log
	Species               Moles    Fraction    Molality    Molality

	H_bgH-            6.338e-05       0.994   3.359e-05      -4.474
	H_bgCa            1.811e-07       0.003   9.601e-08      -7.018
	H_bgH2            1.725e-07       0.003   9.145e-08      -7.039
	H_bgMg            4.712e-08       0.001   2.498e-08      -7.602
	H_bg-2            3.214e-10       0.000   1.704e-10      -9.769

H_c           
	  3.837e-02  moles
	                                   Mole                     Log
	Species               Moles    Fraction    Molality    Molality

	H_cCa+            2.075e-02       0.541   1.100e-02      -1.959
	H_c-              1.014e-02       0.264   5.375e-03      -2.270
	H_cMg+            7.116e-03       0.185   3.772e-03      -2.423
	H_cH              3.639e-04       0.009   1.929e-04      -3.715

H_cd          
	  6.378e-05  moles
	                                   Mole                     Log
	Species               Moles    Fraction    Molality    Molality

	H_cdCa            4.960e-05       0.778   2.629e-05      -4.580
	H_cdMg            1.351e-05       0.212   7.162e-06      -5.145
	H_cd-2            4.514e-07       0.007   2.393e-07      -6.621
	H_cdH-            2.087e-07       0.003   1.106e-07      -6.956
	H_cdH2            7.488e-09       0.000   3.969e-09      -8.401

H_cf          
	  6.378e-02  moles
	                                   Mole                     Log
	Species               Moles    Fraction    Molality    Molality

	H_cfH-            5.885e-02       0.923   3.120e-02      -1.506
	H_cfCa            2.217e-03       0.035   1.175e-03      -2.930
	H_cfH2            2.112e-03       0.033   1.119e-03      -2.951
	H_cfMg            5.768e-04       0.009   3.058e-04      -3.515
	H_cf-2            2.065e-05       0.000   1.094e-05      -4.961

H_ch          
	  6.378e-02  moles
	                                   Mole                     Log
	Species               Moles    Fraction    Molality    Molality

	H_chH-            5.887e-02       0.923   3.121e-02      -1.506
	H_chCa            2.218e-03       0.035   1.176e-03      -2.930
	H_chH2            2.113e-03       0.033   1.120e-03      -2.951
	H_chMg            5.770e-04       0.009   3.059e-04      -3.514
	H_ch-2            4.315e-09       0.000   2.287e-09      -8.641

H_d           
	  3.837e-02  moles
	                                   Mole                     Log
	Species               Moles    Fraction    Molality    Molality

	H_dCa+            2.744e-02       0.715   1.454e-02      -1.837
	H_dMg+            9.410e-03       0.245   4.988e-03      -2.302
	H_d-              1.041e-03       0.027   5.517e-04      -3.258
	H_dH              4.812e-04       0.013   2.551e-04      -3.593

H_de          
	  6.378e-05  moles
	                                   Mole                     Log
	Species               Moles    Fraction    Molality    Molality

	H_deH-            3.040e-05       0.477   1.611e-05      -4.793
	H_deCa            1.475e-05       0.231   7.820e-06      -5.107
	H_deH2            1.405e-05       0.220   7.449e-06      -5.128
	H_deMg            3.838e-06       0.060   2.034e-06      -5.692
	H_de-2            7.378e-07       0.012   3.911e-07      -6.408

H_dg          
	  6.378e-05  moles
	                                   Mole                     Log
	Species               Moles    Fraction    Molality    Molality

	H_dgH-            3.075e-05       0.482   1.630e-05      -4.788
	H_dgCa            1.493e-05       0.234   7.912e-06      -5.102
	H_dgH2            1.422e-05       0.223   7.536e-06      -5.123
	H_dgMg            3.883e-06       0.061   2.058e-06      -5.686
	H_dg-2            1.559e-10       0.000   8.266e-11     -10.083

H_e           
	  1.919e-02  moles
	                                   Mole                     Log
	Species               Moles    Fraction    Molality    Molality

	H_eH              1.851e-02       0.965   9.814e-03      -2.008
	H_e-              4.494e-04       0.023   2.382e-04      -3.623
	H_eCa+            1.712e-04       0.009   9.076e-05      -4.042
	H_eMg+            5.480e-05       0.003   2.905e-05      -4.537

H_f           
	  1.919e-02  moles
	                                   Mole                     Log
	Species               Moles    Fraction    Molality    Molality

	H_fH              1.895e-02       0.988   1.005e-02      -1.998
	H_fCa+            1.753e-04       0.009   9.290e-05      -4.032
	H_fMg+            5.610e-05       0.003   2.973e-05      -4.527
	H_f-              6.649e-06       0.000   3.524e-06      -5.453

H_g           
	  1.919e-02  moles
	                                   Mole                     Log
	Species               Moles    Fraction    Molality    Molality

	H_gH              1.896e-02       0.988   1.005e-02      -1.998
	H_gCa+            1.753e-04       0.009   9.293e-05      -4.032
	H_gMg+            5.612e-05       0.003   2.974e-05      -4.527
	H_g-              9.614e-08       0.000   5.096e-08      -7.293

H_h           
	  1.919e-02  moles
	                                   Mole                     Log
	Species               Moles    Fraction    Molality    Molality

	H_hH              1.896e-02       0.988   1.005e-02      -1.998
	H_hCa+            1.753e-04       0.009   9.293e-05      -4.032
	H_hMg+            5.612e-05       0.003   2.974e-05      -4.527
	H_h-              1.390e-09       0.000   7.366e-10      -9.133

Hfo           
	  2.282e-14  Surface + diffuse layer charge, eq
	 -1.423e-04  Surface charge, eq
	 -8.172e-05  sigma, C/m²
	 -5.049e-04  psi, V
	  1.965e-02  -F*psi/RT
	  1.020e+00  exp(-F*psi/RT)
	  6.000e+02  specific area, m²/g
	  1.680e+05  m² for   2.800e+02 g

	Water in diffuse layer: 1.680e+00 kg,  5.8% of total DDL-water.

	Total moles in diffuse layer (excluding water), Donnan calculation.
	Donnan Layer potential, psi_DL = -2.159e-04 V.
	Boltzmann factor, exp(-psi_DL * F / RT) = 1.008e+00 (= c_DL / c_free if z is +1).

	Element       	     Moles
	Alanine       	  5.1990e-05
	Amm           	  1.4306e-04
	C             	  4.4148e-04
	Ca            	  1.7217e-03
	Cl            	  3.2760e-03
	Cysteine      	  5.1880e-05
	Ferric        	  9.9868e-08
	Ferrous       	  1.3956e-07
	Glutamine     	  5.2003e-05
	Glycine       	  5.2741e-05
	H             	  3.5912e-03
	K             	  1.0859e-04
	Methane       	  9.0168e-07
	Mg            	  7.4476e-04
	Na            	  5.4377e-04
	Nitrate       	  6.0406e-04
	O             	  4.8361e-03
	Ozero         	  2.7132e-04
	P             	  1.4543e-04
	Sulfate       	  3.1279e-04
	Sulfide       	  1.2111e-05
	Threonine     	  5.2003e-05
	Tyrosine      	  5.2003e-05

Hfo_s         
	  5.000e-06  moles
	                                   Mole                     Log
	Species               Moles    Fraction    Molality    Molality

	Hfo_sOHCa+2       4.658e-06       0.932   2.469e-06      -5.607
	Hfo_sOH2+         2.738e-07       0.055   1.451e-07      -6.838
	Hfo_sOH           6.574e-08       0.013   3.485e-08      -7.458
	Hfo_sOFerrous+    1.988e-09       0.000   1.054e-09      -8.977
	Hfo_sO-           3.616e-10       0.000   1.917e-10      -9.717

Hfo_w         
	  2.000e-04  moles
	                                   Mole                     Log
	Species               Moles    Fraction    Molality    Molality

	Hfo_wHPO4-        1.408e-04       0.704   7.463e-05      -4.127
	Hfo_wH2PO4        2.389e-05       0.119   1.266e-05      -4.898
	Hfo_wOH2+         1.695e-05       0.085   8.987e-06      -5.046
	Hfo_wPO4-2        1.409e-05       0.070   7.469e-06      -5.127
	Hfo_wOH           4.071e-06       0.020   2.158e-06      -5.666
	Hfo_wOMg+         1.569e-07       0.001   8.317e-08      -7.080
	Hfo_wO-           2.239e-08       0.000   1.187e-08      -7.926
	Hfo_wOCa+         2.044e-08       0.000   1.083e-08      -7.965
	Hfo_wSulfateO4-   6.059e-09       0.000   3.211e-09      -8.493
	Hfo_wOHSulfateO4-2   2.902e-09       0.000   1.538e-09      -8.813
	Hfo_wOFerrous+    1.149e-09       0.000   6.088e-10      -9.216
	Hfo_wOFerrousOH   1.447e-11       0.000   7.671e-12     -11.115

-----------------------------Exchange composition------------------------------

X                1.600e+01 mol

	                               Equiv-    Equivalent      Log 
	Species             Moles      alents      Fraction     Gamma

	CaX2              5.131e+00   1.026e+01   6.414e-01    -0.000
	MgX2              2.789e+00   5.578e+00   3.486e-01    -0.000
	NaX               8.902e-02   8.902e-02   5.564e-03    -0.000
	AmmH4X            4.137e-02   4.137e-02   2.586e-03    -0.000
	KX                2.813e-02   2.813e-02   1.758e-03    -0.000
	HX                6.714e-04   6.714e-04   4.196e-05    -0.030
	FerrousX2         5.713e-04   1.143e-03   7.141e-05    -0.127

-----------------------------Solution composition------------------------------

	Elements           Molality       Moles

	Alanine           3.147e-05   5.937e-05
	Amm               8.445e-05   1.593e-04
	C                 2.643e-04   4.986e-04
	Ca                1.008e-03   1.902e-03
	Cl                1.966e-03   3.710e-03
	Cysteine          3.140e-05   5.924e-05
	Ferric            5.913e-08   1.116e-07
	Ferrous           8.179e-08   1.543e-07
	Glutamine         3.148e-05   5.939e-05
	Glycine           3.166e-05   5.973e-05
	K                 6.410e-05   1.209e-04
	Methane           5.367e-07   1.013e-06
	Mg                4.361e-04   8.228e-04
	Na                3.210e-04   6.055e-04
	Nitrate           3.626e-04   6.841e-04
	Ozero             1.615e-04   3.047e-04
	P                 8.736e-05   1.648e-04
	Sulfate           1.889e-04   3.564e-04
	Sulfide           7.231e-06   1.364e-05
	Threonine         3.148e-05   5.939e-05
	Tyrosine          3.148e-05   5.939e-05

----------------------------Description of solution----------------------------

                                       pH  =   6.679      Charge balance
                                       pe  =  -6.685      Adjusted to redox equilibrium
      Specific Conductance (µS/cm,  25°C)  = 373
                        Activity of water  =   1.000
                 Ionic strength (mol/kgw)  =   5.026e-03
                       Mass of water (kg)  =   1.887e+00
                 Total alkalinity (eq/kg)  =   4.069e-04
                       Total CO2 (mol/kg)  =   2.643e-04
                         Temperature (°C)  =  25.00
                           Pressure (atm)  =  0.07
                  Electrical balance (eq)  =  -8.060e-10
 Percent error, 100*(Cat-|An|)/(Cat+|An|)  =  -0.00
                               Iterations  = 184
                                  Total H  = 2.094375e+02
                                  Total O  = 1.047222e+02

----------------------------Distribution of species----------------------------

                                               Log       Log       Log    mole V
   Species          Molality    Activity  Molality  Activity     Gamma   cm³/mol

   H+              2.244e-07   2.094e-07    -6.649    -6.679    -0.030      0.00
   OH-             5.162e-08   4.779e-08    -7.287    -7.321    -0.033     (0)  
   H2O             5.551e+01   9.999e-01     1.744    -0.000     0.000     18.07
Alanine       3.147e-05
   Alanine-2       3.146e-05   2.322e-05    -4.502    -4.634    -0.132     (0)  
   H2(Alanine)     7.541e-09   7.550e-09    -8.123    -8.122     0.001     (0)  
   H(Alanine)-     1.175e-09   1.089e-09    -8.930    -8.963    -0.033     (0)  
Amm           8.445e-05
   AmmH4+          8.410e-05   7.774e-05    -4.075    -4.109    -0.034     (0)  
   AmmH3           2.113e-07   2.115e-07    -6.675    -6.675     0.001     (0)  
   AmmH4SulfateO4-   1.299e-07   1.204e-07    -6.886    -6.919    -0.033     (0)  
C(4)          2.643e-04
   HCO3-           1.822e-04   1.692e-04    -3.739    -3.772    -0.032     (0)  
   CO2             7.959e-05   7.969e-05    -4.099    -4.099     0.001     (0)  
   CaHCO3+         1.697e-06   1.576e-06    -5.770    -5.803    -0.032     (0)  
   MgHCO3+         6.732e-07   6.239e-07    -6.172    -6.205    -0.033     (0)  
   CO3-2           5.093e-08   3.789e-08    -7.293    -7.422    -0.128     (0)  
   CaCO3           4.640e-08   4.645e-08    -7.333    -7.333     0.001     (0)  
   NaHCO3          2.827e-08   2.830e-08    -7.549    -7.548     0.001     (0)  
   MgCO3           1.138e-08   1.139e-08    -7.944    -7.943     0.001     (0)  
   FerrousHCO3+    1.010e-09   9.364e-10    -8.996    -9.029    -0.033     (0)  
   NaCO3-          2.264e-10   2.099e-10    -9.645    -9.678    -0.033     (0)  
   FerrousCO3      5.024e-11   5.029e-11   -10.299   -10.298     0.001     (0)  
Ca            1.008e-03
   Ca+2            9.818e-04   7.299e-04    -3.008    -3.137    -0.129     (0)  
   CaSulfateO4     1.749e-05   1.751e-05    -4.757    -4.757     0.001     (0)  
   CaHPO4          6.083e-06   6.090e-06    -5.216    -5.215     0.001     (0)  
   CaHCO3+         1.697e-06   1.576e-06    -5.770    -5.803    -0.032     (0)  
   CaH2PO4+        1.034e-06   9.587e-07    -5.985    -6.018    -0.033     (0)  
   CaPO4-          7.422e-08   6.879e-08    -7.129    -7.162    -0.033     (0)  
   CaCO3           4.640e-08   4.645e-08    -7.333    -7.333     0.001     (0)  
   CaOH+           6.240e-10   5.783e-10    -9.205    -9.238    -0.033     (0)  
   CaHSulfateO4+   2.319e-11   2.149e-11   -10.635   -10.668    -0.033     (0)  
Cl            1.966e-03
   Cl-             1.966e-03   1.821e-03    -2.706    -2.740    -0.033     (0)  
   FerrousCl+      1.501e-10   1.391e-10    -9.824    -9.857    -0.033     (0)  
   FerricCl+2      5.329e-17   3.933e-17   -16.273   -16.405    -0.132     (0)  
   FerricCl2+      3.452e-19   3.199e-19   -18.462   -18.495    -0.033     (0)  
   FerricCl3       5.819e-23   5.826e-23   -22.235   -22.235     0.001     (0)  
Cysteine      3.140e-05
   Cysteine-2      3.134e-05   2.313e-05    -4.504    -4.636    -0.132     (0)  
   H2(Cysteine)    6.107e-08   6.114e-08    -7.214    -7.214     0.001     (0)  
   H(Cysteine)-    2.681e-10   2.484e-10    -9.572    -9.605    -0.033     (0)  
Ferric        5.913e-08
   Ferric(OH)2+    3.759e-08   3.484e-08    -7.425    -7.458    -0.033     (0)  
   Ferric(OH)3     2.140e-08   2.143e-08    -7.670    -7.669     0.001     (0)  
   Ferric(OH)4-    1.007e-10   9.330e-11    -9.997   -10.030    -0.033     (0)  
   FerricOH+2      2.987e-11   2.204e-11   -10.525   -10.657    -0.132     (0)  
   FerricH2PO4+2   1.339e-14   9.880e-15   -13.873   -14.005    -0.132     (0)  
   FerricHPO4+     3.160e-15   2.929e-15   -14.500   -14.533    -0.033     (0)  
   Ferric+3        1.329e-15   7.151e-16   -14.877   -15.146    -0.269     (0)  
   FerricSulfateO4+   1.017e-15   9.430e-16   -14.993   -15.026    -0.033     (0)  
   FerricCl+2      5.329e-17   3.933e-17   -16.273   -16.405    -0.132     (0)  
   Ferric(SulfateO4)2-   2.677e-18   2.481e-18   -17.572   -17.605    -0.033     (0)  
   FerricCl2+      3.452e-19   3.199e-19   -18.462   -18.495    -0.033     (0)  
   Ferric2(OH)2+4   4.410e-20   1.308e-20   -19.356   -19.884    -0.528     (0)  
   FerricHSulfateO4+2   7.167e-22   5.289e-22   -21.145   -21.277    -0.132     (0)  
   FerricCl3       5.819e-23   5.826e-23   -22.235   -22.235     0.001     (0)  
   Ferric3(OH)4+5   6.361e-25   9.519e-26   -24.196   -25.021    -0.825     (0)  
Ferrous       8.179e-08
   Ferrous+2       7.412e-08   5.534e-08    -7.130    -7.257    -0.127     (0)  
   FerrousHPO4     3.349e-09   3.352e-09    -8.475    -8.475     0.001     (0)  
   FerrousH2PO4+   1.536e-09   1.424e-09    -8.814    -8.847    -0.033     (0)  
   FerrousSulfateO4   1.182e-09   1.184e-09    -8.927    -8.927     0.001     (0)  
   FerrousHCO3+    1.010e-09   9.364e-10    -8.996    -9.029    -0.033     (0)  
   Ferrous(HSulfide)2   3.043e-10   3.047e-10    -9.517    -9.516     0.001     (0)  
   FerrousCl+      1.501e-10   1.391e-10    -9.824    -9.857    -0.033     (0)  
   FerrousOH+      9.014e-11   8.355e-11   -10.045   -10.078    -0.033     (0)  
   FerrousCO3      5.024e-11   5.029e-11   -10.299   -10.298     0.001     (0)  
   Ferrous(HSulfide)3-   8.897e-14   8.246e-14   -13.051   -13.084    -0.033     (0)  
   FerrousHSulfateO4+   1.758e-15   1.629e-15   -14.755   -14.788    -0.033     (0)  
Glutamine     3.148e-05
   Glutamine-2     3.148e-05   2.323e-05    -4.502    -4.634    -0.132     (0)  
   H2(Glutamine)   1.373e-09   1.375e-09    -8.862    -8.862     0.001     (0)  
   H(Glutamine)-   7.764e-10   7.196e-10    -9.110    -9.143    -0.033     (0)  
Glycine       3.166e-05
   Glycine-        3.165e-05   2.934e-05    -4.500    -4.533    -0.033     (0)  
   H2(Glycine)+    5.528e-09   5.123e-09    -8.257    -8.290    -0.033     (0)  
   H(Glycine)      1.343e-09   1.344e-09    -8.872    -8.872     0.001     (0)  
H(0)          1.457e-03
   H2              7.283e-04   7.292e-04    -3.138    -3.137     0.001     (0)  
K             6.410e-05
   K+              6.404e-05   5.931e-05    -4.194    -4.227    -0.033     (0)  
   KSulfateO4-     5.407e-08   5.012e-08    -7.267    -7.300    -0.033     (0)  
   KHPO4-          1.899e-09   1.760e-09    -8.722    -8.755    -0.033     (0)  
   KOH             9.806e-13   9.817e-13   -12.009   -12.008     0.001     (0)  
Methane       5.367e-07
   MethaneH4       5.367e-07   5.373e-07    -6.270    -6.270     0.001     (0)  
Mg            4.361e-04
   Mg+2            4.224e-04   3.152e-04    -3.374    -3.501    -0.127     (0)  
   MgSulfateO4     8.875e-06   8.885e-06    -5.052    -5.051     0.001     (0)  
   MgHPO4          3.551e-06   3.555e-06    -5.450    -5.449     0.001     (0)  
   MgHCO3+         6.732e-07   6.239e-07    -6.172    -6.205    -0.033     (0)  
   MgH2PO4+        5.687e-07   5.271e-07    -6.245    -6.278    -0.033     (0)  
   MgPO4-          4.323e-08   4.007e-08    -7.364    -7.397    -0.033     (0)  
   MgCO3           1.138e-08   1.139e-08    -7.944    -7.943     0.001     (0)  
   MgOH+           5.894e-09   5.463e-09    -8.230    -8.263    -0.033     (0)  
Na            3.210e-04
   Na+             3.207e-04   2.975e-04    -3.494    -3.527    -0.033     (0)  
   NaSulfateO4-    1.935e-07   1.793e-07    -6.713    -6.746    -0.033     (0)  
   NaHCO3          2.827e-08   2.830e-08    -7.549    -7.548     0.001     (0)  
   NaHPO4-         9.523e-09   8.826e-09    -8.021    -8.054    -0.033     (0)  
   NaCO3-          2.264e-10   2.099e-10    -9.645    -9.678    -0.033     (0)  
   NaOH            9.372e-12   9.383e-12   -11.028   -11.028     0.001     (0)  
Nitrate       3.626e-04
   NitrateO3-      3.626e-04   3.361e-04    -3.441    -3.474    -0.033     (0)  
O(0)          0.000e+00
   O2              0.000e+00   0.000e+00   -86.106   -86.106     0.001     (0)  
Ozero         1.615e-04
   Ozero2          8.075e-05   8.084e-05    -4.093    -4.092     0.001     (0)  
P             8.736e-05
   H2PO4-          5.535e-05   5.133e-05    -4.257    -4.290    -0.033     (0)  
   HPO4-2          2.064e-05   1.522e-05    -4.685    -4.818    -0.132     (0)  
   CaHPO4          6.083e-06   6.090e-06    -5.216    -5.215     0.001     (0)  
   MgHPO4          3.551e-06   3.555e-06    -5.450    -5.449     0.001     (0)  
   CaH2PO4+        1.034e-06   9.587e-07    -5.985    -6.018    -0.033     (0)  
   MgH2PO4+        5.687e-07   5.271e-07    -6.245    -6.278    -0.033     (0)  
   CaPO4-          7.422e-08   6.879e-08    -7.129    -7.162    -0.033     (0)  
   MgPO4-          4.323e-08   4.007e-08    -7.364    -7.397    -0.033     (0)  
   NaHPO4-         9.523e-09   8.826e-09    -8.021    -8.054    -0.033     (0)  
   FerrousHPO4     3.349e-09   3.352e-09    -8.475    -8.475     0.001     (0)  
   KHPO4-          1.899e-09   1.760e-09    -8.722    -8.755    -0.033     (0)  
   FerrousH2PO4+   1.536e-09   1.424e-09    -8.814    -8.847    -0.033     (0)  
   PO4-3           6.500e-11   3.275e-11   -10.187   -10.485    -0.298     (0)  
   FerricH2PO4+2   1.339e-14   9.880e-15   -13.873   -14.005    -0.132     (0)  
   FerricHPO4+     3.160e-15   2.929e-15   -14.500   -14.533    -0.033     (0)  
Sulfate       1.889e-04
   SulfateO4-2     1.621e-04   1.203e-04    -3.790    -3.920    -0.130     (0)  
   CaSulfateO4     1.749e-05   1.751e-05    -4.757    -4.757     0.001     (0)  
   MgSulfateO4     8.875e-06   8.885e-06    -5.052    -5.051     0.001     (0)  
   NaSulfateO4-    1.935e-07   1.793e-07    -6.713    -6.746    -0.033     (0)  
   AmmH4SulfateO4-   1.299e-07   1.204e-07    -6.886    -6.919    -0.033     (0)  
   KSulfateO4-     5.407e-08   5.012e-08    -7.267    -7.300    -0.033     (0)  
   HSulfateO4-     2.642e-09   2.449e-09    -8.578    -8.611    -0.033     (0)  
   FerrousSulfateO4   1.182e-09   1.184e-09    -8.927    -8.927     0.001     (0)  
   CaHSulfateO4+   2.319e-11   2.149e-11   -10.635   -10.668    -0.033     (0)  
   FerrousHSulfateO4+   1.758e-15   1.629e-15   -14.755   -14.788    -0.033     (0)  
   FerricSulfateO4+   1.017e-15   9.430e-16   -14.993   -15.026    -0.033     (0)  
   Ferric(SulfateO4)2-   2.677e-18   2.481e-18   -17.572   -17.605    -0.033     (0)  
   FerricHSulfateO4+2   7.167e-22   5.289e-22   -21.145   -21.277    -0.132     (0)  
Sulfide       7.231e-06
   H2Sulfide       4.546e-06   4.552e-06    -5.342    -5.342     0.001     (0)  
   HSulfide-       2.684e-06   2.485e-06    -5.571    -5.605    -0.033     (0)  
   Ferrous(HSulfide)2   3.043e-10   3.047e-10    -9.517    -9.516     0.001     (0)  
   Sulfide-2       1.931e-12   1.433e-12   -11.714   -11.844    -0.130     (0)  
   Ferrous(HSulfide)3-   8.897e-14   8.246e-14   -13.051   -13.084    -0.033     (0)  
Threonine     3.148e-05
   Threonine-2     3.148e-05   2.323e-05    -4.502    -4.634    -0.132     (0)  
   H2(Threonine)   1.342e-09   1.343e-09    -8.872    -8.872     0.001     (0)  
   H(Threonine)-   7.414e-10   6.872e-10    -9.130    -9.163    -0.033     (0)  
Tyrosine      3.148e-05
   Tyrosine-2      3.148e-05   2.323e-05    -4.502    -4.634    -0.132     (0)  
   H2(Tyrosine)    1.311e-09   1.313e-09    -8.882    -8.882     0.001     (0)  
   H(Tyrosine)-    8.319e-10   7.710e-10    -9.080    -9.113    -0.033     (0)  

------------------------------Saturation indices-------------------------------

  Phase               SI** log IAP   log K(298 K,   0 atm)

  FixpH            -6.68     -6.68    0.00  H+
  H2(g)             0.01     -3.14   -3.15  H2
  H2O(g)           -1.51     -0.00    1.51  H2O
  Halite           -7.85     -6.27    1.58  NaCl
  Hydroxyapatite    0.00     -3.42   -3.42  Ca5(PO4)3OH
  ORM             813.96    -65.27 -879.23  C5H4O2Amm
  redoxAnhydrite   -2.70     -7.06   -4.36  CaSulfateO4
  redoxAragonite   -2.22    -10.56   -8.34  CaCO3
  redoxCalcite     -2.08    -10.56   -8.48  CaCO3
  redoxCH4(g)      -3.41     -6.27   -2.86  MethaneH4
  redoxCO2(g)      -2.63     -4.10   -1.47  CO2
  redoxDolomite    -4.39    -21.48  -17.09  CaMg(CO3)2
  redoxFe(OH)3(a)   0.00      4.89    4.89  Ferric(OH)3
  redoxFeS(ppt)    -2.27     -6.18   -3.92  FerrousSulfide
  redoxGoethite     5.89      4.89   -1.00  FerricOOH
  redoxGypsum      -2.48     -7.06   -4.58  CaSulfateO4:2H2O
  redoxH2S(g)      -4.34     -5.34   -1.00  H2Sulfide
  redoxHematite    13.79      9.78   -4.01  Ferric2O3
  redoxJarosite-K  -8.22    -17.43   -9.21  KFerric3(SulfateO4)2(OH)6
  redoxMackinawite  -1.53     -6.18   -4.65  FerrousSulfide
  redoxMelanterite  -8.97    -11.18   -2.21  FerrousSulfateO4:7H2O
  redoxNH3(g)      -8.44     -6.67    1.77  AmmH3
  redoxO2(g)       -1.20     -4.09   -2.89  Ozero2
  redoxPyrite       0.00    -18.48  -18.48  FerrousSulfide2
  redoxSiderite    -3.79    -14.68  -10.89  FerrousCO3
  redoxSulfur     -10.24     -5.35    4.88  Sulfide
  redoxVivianite   -6.74    -42.74  -36.00  Ferrous3(PO4)2:8H2O

**For a gas, SI = log10(fugacity). Fugacity = pressure * phi / 1 atm.
  For ideal gases, phi = 1.

Reaction step 2.

Using solution 1.	
Using exchange 1.	Exchange assemblage after simulation 3.
Using surface 1.	
Using pure phase assemblage 1.	
Using gas phase 1.	fixed volume gas phase
Using kinetics 1.	Decomposition  

Kinetics 1.	Decomposition  

	Time step: 1 seconds  (Incremented time: 2 seconds)

	Rate name       Delta Moles Total Moles   Reactant        Coefficient

	BA                6.292e-02   6.914e-01   CH2O                      0
	OAC               2.335e-02   9.114e-02   CH2O                      0
	Aero              1.790e-03   1.003e+00   CH2O                      0
	                                          HCO3                  -1.44
	                                          Ozero2                 1.44
	SulR              1.475e-06   1.000e+00   CH2O                      0
	                                          HCO3                     -9
	                                          HSulfide-              -4.5
	                                          SulfateO4-2             4.5
	Meth             -0.000e+00   1.000e+00   CH2O                      0
	                                          HCO3                  20.24
	                                          MethaneH4            -20.24
	POM              -1.406e-01   4.425e+00   CH2O                      0
	MOM               7.300e-02   1.605e+01   CH2O                      0
	DOM              -1.296e-01   6.984e-02   CH2O                      0
	QOM              -5.352e-03   1.753e+00   CH2O                      0
	EP                6.114e-04   5.314e-02   CH2O                      0
	EM                6.114e-04   5.314e-02   CH2O                      0
	respiration       1.447e-01   3.387e-01   CH2O                      0
	Tot              -1.448e-01   2.314e+01   CH2O                      0
	Salt              9.753e-04   2.960e-03   CH2O                      0
	                                          Ca+2                     -2
	                                          Cl-                     -26
	                                          HCO3                     -3
	                                          K+                       -1
	                                          Mg+2                     -4
	                                          Na+                     -25
	                                          Nitrate                  -5
	                                          Sulfate                  -2
	Caero             4.367e-03   6.269e-03   CH2O                      0
	Csulr             1.475e-05   1.717e-05   CH2O                      0
	Cmeth            -0.000e+00   0.000e+00   CH2O                      0

-----------------------------------Gas phase-----------------------------------

Total pressure:  0.07      atmospheres 
    Gas volume:   9.00e-01 liters
  Molar volume:   3.58e+02 liters/mole

                                                        Moles in gas
                                            ----------------------------------
Component                log P           P     Initial       Final       Delta

redoxCH4(g)              -3.41   3.894e-04   1.432e-05   1.432e-05   4.853e-09
redoxCO2(g)              -2.31   4.856e-03   8.610e-05   1.786e-04   9.253e-05
redoxO2(g)               -1.20   6.310e-02   2.321e-03   2.321e-03   0.000e+00

-------------------------------Phase assemblage--------------------------------

                                                      Moles in assemblage
Phase               SI  log IAP  log K(T, P)   Initial       Final       Delta

Hydroxyapatite   -0.00    -3.42     -3.42    5.414e-04   5.733e-04   3.184e-05
redoxCalcite     -1.75   -10.22     -8.48    0.000e+00           0   0.000e+00
redoxFe(OH)3(a)    0.00     4.89      4.89    2.005e+00   2.005e+00  -4.219e-08
redoxFeS(ppt)    -2.12    -6.03     -3.92    0.000e+00           0   0.000e+00
redoxO2(g)       -1.20    -4.09     -2.89    1.013e+00   1.010e+00  -2.576e-03
redoxPyrite       0.00   -18.48    -18.48    1.413e-03   1.384e-03  -2.924e-05

------------------------------Surface composition------------------------------

Diffuse Double Layer Surface-Complexation Model

H             
	 -4.010e-09  Surface + diffuse layer charge, eq
	 -5.998e-01  Surface charge, eq
	 -2.117e-02  sigma, C/m²
	 -7.541e-02  psi, V
	  2.935e+00  -F*psi/RT
	  1.882e+01  exp(-F*psi/RT)
	  3.417e+04  specific area, m²/g
	  2.734e+06  m² for   8.000e+01 g

	Water in diffuse layer: 2.734e+01 kg, 94.2% of total DDL-water.

	Total moles in diffuse layer (excluding water), Donnan calculation.
	Donnan Layer potential, psi_DL = -2.085e-02 V.
	Boltzmann factor, exp(-psi_DL * F / RT) = 2.252e+00 (= c_DL / c_free if z is +1).

	Element       	     Moles
	Alanine       	  1.3718e-04
	Amm           	  6.4057e-03
	C             	  8.7932e-03
	Ca            	  2.1662e-01
	Cl            	  4.0266e-02
	Cysteine      	  1.3815e-04
	Ferric        	  3.4062e-06
	Ferrous       	  1.6521e-05
	Glutamine     	  1.3707e-04
	Glycine       	  3.3294e-04
	H             	  1.0917e-01
	K             	  5.0095e-03
	Methane       	  1.4667e-05
	Mg            	  9.3242e-02
	Na            	  2.9492e-02
	Nitrate       	  7.5800e-03
	O             	  6.0014e-02
	Ozero         	  4.4120e-03
	P             	  9.8913e-04
	Sulfate       	  2.8601e-03
	Sulfide       	  2.0867e-04
	Threonine     	  1.3707e-04
	Tyrosine      	  1.3707e-04

H_a           
	  3.837e-02  moles
	                                   Mole                     Log
	Species               Moles    Fraction    Molality    Molality

	H_a-              3.788e-02       0.987   2.008e-02      -1.697
	H_aCa+            3.576e-04       0.009   1.896e-04      -3.722
	H_aMg+            1.228e-04       0.003   6.508e-05      -4.187
	H_aH              6.953e-06       0.000   3.686e-06      -5.433

H_ab          
	  6.378e-02  moles
	                                   Mole                     Log
	Species               Moles    Fraction    Molality    Molality

	H_ab-2            6.339e-02       0.994   3.361e-02      -1.474
	H_abCa            1.892e-04       0.003   1.003e-04      -3.999
	H_abH-            1.499e-04       0.002   7.946e-05      -4.100
	H_abMg            5.159e-05       0.001   2.735e-05      -4.563
	H_abH2            2.751e-08       0.000   1.458e-08      -7.836

H_ad          
	  6.378e-02  moles
	                                   Mole                     Log
	Species               Moles    Fraction    Molality    Molality

	H_ad-2            3.116e-02       0.489   1.652e-02      -1.782
	H_adCa            1.580e-02       0.248   8.375e-03      -2.077
	H_adH-            1.251e-02       0.196   6.634e-03      -2.178
	H_adMg            4.307e-03       0.068   2.284e-03      -2.641
	H_adH2            2.296e-06       0.000   1.218e-06      -5.915

H_af          
	  6.378e-02  moles
	                                   Mole                     Log
	Species               Moles    Fraction    Molality    Molality

	H_afH-            5.730e-02       0.898   3.038e-02      -1.517
	H_afCa            6.447e-03       0.101   3.418e-03      -2.466
	H_af-2            2.314e-05       0.000   1.227e-05      -4.911
	H_afH2            1.052e-05       0.000   5.575e-06      -5.254
	H_afMg            2.985e-06       0.000   1.583e-06      -5.801

H_ah          
	  6.378e-02  moles
	                                   Mole                     Log
	Species               Moles    Fraction    Molality    Molality

	H_ahH-            6.375e-02       1.000   3.380e-02      -1.471
[...]
	Species               Moles    Fraction    Molality    Molality

	H_fH              1.910e-02       0.995   1.023e-02      -1.990
	H_fCa+            5.549e-05       0.003   2.971e-05      -4.527
	H_fMg+            1.929e-05       0.001   1.033e-05      -4.986
	H_f-              1.162e-05       0.001   6.220e-06      -5.206

H_g           
	  1.919e-02  moles
	                                   Mole                     Log
	Species               Moles    Fraction    Molality    Molality

	H_gH              1.912e-02       0.996   1.023e-02      -1.990
	H_gCa+            5.553e-05       0.003   2.973e-05      -4.527
	H_gMg+            1.930e-05       0.001   1.034e-05      -4.986
	H_g-              1.680e-07       0.000   8.996e-08      -7.046

H_h           
	  1.919e-02  moles
	                                   Mole                     Log
	Species               Moles    Fraction    Molality    Molality

	H_hH              1.912e-02       0.996   1.023e-02      -1.990
	H_hCa+            5.553e-05       0.003   2.973e-05      -4.527
	H_hMg+            1.930e-05       0.001   1.034e-05      -4.986
	H_h-              2.429e-09       0.000   1.300e-09      -8.886

Hfo           
	  4.186e-13  Surface + diffuse layer charge, eq
	 -4.529e-06  Surface charge, eq
	 -2.601e-06  sigma, C/m²
	 -3.382e-06  psi, V
	  1.316e-04  -F*psi/RT
	  1.000e+00  exp(-F*psi/RT)
	  6.000e+02  specific area, m²/g
	  1.680e+05  m² for   2.800e+02 g

	Water in diffuse layer: 1.680e+00 kg,  5.8% of total DDL-water.

	Total moles in diffuse layer (excluding water), Donnan calculation.
	Donnan Layer potential, psi_DL = -3.174e-07 V.
	Boltzmann factor, exp(-psi_DL * F / RT) = 1.000e+00 (= c_DL / c_free if z is +1).

	Element       	     Moles
	Alanine       	  1.4974e-05
	Amm           	  5.5608e-04
	C             	  3.3055e-02
	Ca            	  3.9026e-02
	Cl            	  9.7537e-02
	Cysteine      	  1.4974e-05
	Ferric        	  3.7886e-07
	Ferrous       	  4.9270e-08
	Glutamine     	  1.4974e-05
	Glycine       	  2.5764e-05
	H             	  1.5374e-01
	K             	  1.1692e-03
	Methane       	  8.9153e-07
	Mg            	  1.7681e-02
	Na            	  2.7759e-02
	Nitrate       	  1.8744e-02
	O             	  1.6130e-01
	Ozero         	  2.6463e-04
	P             	  1.2626e-04
	Sulfate       	  6.1727e-03
	Sulfide       	  1.1743e-03
	Threonine     	  1.4974e-05
	Tyrosine      	  1.4974e-05

Hfo_s         
	  5.000e-06  moles
	                                   Mole                     Log
	Species               Moles    Fraction    Molality    Molality

	Hfo_sOHCa+2       4.874e-06       0.975   2.610e-06      -5.583
	Hfo_sOH2+         1.191e-07       0.024   6.379e-08      -7.195
	Hfo_sOH           6.475e-09       0.001   3.467e-09      -8.460
	Hfo_sO-           8.062e-12       0.000   4.316e-12     -11.365
	Hfo_sOFerrous+    2.681e-12       0.000   1.435e-12     -11.843

Hfo_w         
	  2.000e-04  moles
	                                   Mole                     Log
	Species               Moles    Fraction    Molality    Molality

	Hfo_wHPO4-        7.475e-05       0.374   4.003e-05      -4.398
	Hfo_wOH2+         6.352e-05       0.318   3.401e-05      -4.468
	Hfo_wH2PO4        5.603e-05       0.280   3.000e-05      -4.523
	Hfo_wOH           3.453e-06       0.017   1.849e-06      -5.733
	Hfo_wPO4-2        1.694e-06       0.008   9.069e-07      -6.042
	Hfo_wOMg+         3.477e-07       0.002   1.862e-07      -6.730
	Hfo_wSulfateO4-   1.359e-07       0.001   7.278e-08      -7.138
	Hfo_wOCa+         4.169e-08       0.000   2.232e-08      -7.651
	Hfo_wOHSulfateO4-2   1.469e-08       0.000   7.868e-09      -8.104
	Hfo_wO-           4.299e-09       0.000   2.302e-09      -8.638
	Hfo_wOFerrous+    1.334e-11       0.000   7.143e-12     -11.146
	Hfo_wOFerrousOH   3.794e-14       0.000   2.031e-14     -13.692

-----------------------------Exchange composition------------------------------

X                1.600e+01 mol

	                               Equiv-    Equivalent      Log 
	Species             Moles      alents      Fraction     Gamma

	CaX2              4.653e+00   9.306e+00   5.816e-01     0.000
	MgX2              2.747e+00   5.494e+00   3.434e-01     0.000
	NaX               1.092e+00   1.092e+00   6.823e-02     0.000
	KX                7.104e-02   7.104e-02   4.440e-03     0.000
	AmmH4X            3.669e-02   3.669e-02   2.293e-03     0.000
	HX                9.862e-04   9.862e-04   6.164e-05    -0.086
	FerrousX2         5.700e-06   1.140e-05   7.126e-07    -0.413

-----------------------------Solution composition------------------------------

	Elements           Molality       Moles

	Alanine           8.913e-06   1.665e-05
	Amm               3.310e-04   6.182e-04
	C                 1.968e-02   3.675e-02
	Ca                2.323e-02   4.338e-02
	Cl                5.806e-02   1.084e-01
	Cysteine          8.913e-06   1.665e-05
	Ferric            2.255e-07   4.212e-07
	Ferrous           2.933e-08   5.477e-08
	Glutamine         8.913e-06   1.665e-05
	Glycine           1.534e-05   2.864e-05
	K                 6.960e-04   1.300e-03
	Methane           5.307e-07   9.911e-07
	Mg                1.052e-02   1.966e-02
	Na                1.652e-02   3.086e-02
	Nitrate           1.116e-02   2.084e-02
	Ozero             1.575e-04   2.942e-04
	P                 7.516e-05   1.404e-04
	Sulfate           3.674e-03   6.862e-03
	Sulfide           6.990e-04   1.305e-03
	Threonine         8.913e-06   1.665e-05
	Tyrosine          8.913e-06   1.665e-05

----------------------------Description of solution----------------------------

                                       pH  =   6.025      Charge balance
                                       pe  =  -6.908      Adjusted to redox equilibrium
      Specific Conductance (µS/cm,  25°C)  = 7978
                        Activity of water  =   0.997
                 Ionic strength (mol/kgw)  =   1.135e-01
                       Mass of water (kg)  =   1.868e+00
                 Total alkalinity (eq/kg)  =   8.373e-03
                       Total CO2 (mol/kg)  =   1.968e-02
                         Temperature (°C)  =  25.00
                           Pressure (atm)  =  0.41
                  Electrical balance (eq)  =  -2.012e-07
 Percent error, 100*(Cat-|An|)/(Cat+|An|)  =  -0.00
                               Iterations  = 107
                                  Total H  = 2.075014e+02
                                  Total O  = 1.038446e+02

----------------------------Distribution of species----------------------------

                                               Log       Log       Log    mole V
   Species          Molality    Activity  Molality  Activity     Gamma   cm³/mol

   H+              1.150e-06   9.435e-07    -5.939    -6.025    -0.086      0.00
   OH-             1.407e-08   1.058e-08    -7.852    -7.976    -0.124     (0)  
   H2O             5.551e+01   9.969e-01     1.744    -0.001     0.000     18.07
Alanine       8.913e-06
   Alanine-2       8.892e-06   3.194e-06    -5.051    -5.496    -0.445     (0)  
   H2(Alanine)     2.054e-08   2.108e-08    -7.688    -7.676     0.011     (0)  
   H(Alanine)-     8.715e-10   6.747e-10    -9.060    -9.171    -0.111     (0)  
Amm           3.310e-04
   AmmH4+          3.281e-04   2.407e-04    -3.484    -3.619    -0.135     (0)  
   AmmH4SulfateO4-   2.765e-06   2.141e-06    -5.558    -5.669    -0.111     (0)  
   AmmH3           1.416e-07   1.454e-07    -6.849    -6.838     0.011     (0)  
C(4)          1.968e-02
   CO2             1.149e-02   1.179e-02    -1.940    -1.928     0.011     (0)  
   HCO3-           7.098e-03   5.541e-03    -2.149    -2.256    -0.108     (0)  
   CaHCO3+         7.303e-04   5.701e-04    -3.136    -3.244    -0.108     (0)  
   MgHCO3+         3.167e-04   2.452e-04    -3.499    -3.610    -0.111     (0)  
   NaHCO3          3.866e-05   3.968e-05    -4.413    -4.401     0.011     (0)  
   CaCO3           3.635e-06   3.731e-06    -5.439    -5.428     0.011     (0)  
   MgCO3           9.683e-07   9.940e-07    -6.014    -6.003     0.011     (0)  
   CO3-2           7.416e-07   2.754e-07    -6.130    -6.560    -0.430     (0)  
   NaCO3-          8.436e-08   6.531e-08    -7.074    -7.185    -0.111     (0)  
   FerrousHCO3+    2.492e-09   1.929e-09    -8.604    -8.715    -0.111     (0)  
   FerrousCO3      2.241e-11   2.300e-11   -10.650   -10.638     0.011     (0)  
Ca            2.323e-02
   Ca+2            2.140e-02   8.065e-03    -1.670    -2.093    -0.424     (0)  
   CaSulfateO4     1.082e-03   1.111e-03    -2.966    -2.954     0.011     (0)  
   CaHCO3+         7.303e-04   5.701e-04    -3.136    -3.244    -0.108     (0)  
   CaHPO4          8.906e-06   9.142e-06    -5.050    -5.039     0.011     (0)  
   CaH2PO4+        8.374e-06   6.483e-06    -5.077    -5.188    -0.111     (0)  
   CaCO3           3.635e-06   3.731e-06    -5.439    -5.428     0.011     (0)  
   CaPO4-          2.961e-08   2.292e-08    -7.529    -7.640    -0.111     (0)  
   CaHSulfateO4+   7.932e-09   6.141e-09    -8.101    -8.212    -0.111     (0)  
   CaOH+           1.827e-09   1.414e-09    -8.738    -8.850    -0.111     (0)  
Cl            5.806e-02
   Cl-             5.806e-02   4.382e-02    -1.236    -1.358    -0.122     (0)  
   FerrousCl+      2.720e-10   2.106e-10    -9.565    -9.677    -0.111     (0)  
   FerricCl+2      2.430e-13   8.729e-14   -12.614   -13.059    -0.445     (0)  
   FerricCl2+      2.207e-14   1.709e-14   -13.656   -13.767    -0.111     (0)  
   FerricCl3       7.296e-17   7.489e-17   -16.137   -16.126     0.011     (0)  
Cysteine      8.913e-06
   Cysteine-2      8.749e-06   3.143e-06    -5.058    -5.503    -0.445     (0)  
   H2(Cysteine)    1.642e-07   1.686e-07    -6.785    -6.773     0.011     (0)  
   H(Cysteine)-    1.964e-10   1.521e-10    -9.707    -9.818    -0.111     (0)  
Ferric        2.255e-07
   Ferric(OH)2+    2.034e-07   1.574e-07    -6.692    -6.803    -0.111     (0)  
   Ferric(OH)3     2.088e-08   2.143e-08    -7.680    -7.669     0.011     (0)  
   FerricOH+2      1.253e-09   4.500e-10    -8.902    -9.347    -0.445     (0)  
   Ferric(OH)4-    2.667e-11   2.065e-11   -10.574   -10.685    -0.111     (0)  
   FerricH2PO4+2   1.553e-12   5.578e-13   -11.809   -12.254    -0.445     (0)  
   FerricSulfateO4+   6.450e-13   4.993e-13   -12.190   -12.302    -0.111     (0)  
   Ferric+3        3.927e-13   6.596e-14   -12.406   -13.181    -0.775     (0)  
   FerricCl+2      2.430e-13   8.729e-14   -12.614   -13.059    -0.445     (0)  
   FerricHPO4+     4.741e-14   3.671e-14   -13.324   -13.435    -0.111     (0)  
   FerricCl2+      2.207e-14   1.709e-14   -13.656   -13.767    -0.111     (0)  
   Ferric(SulfateO4)2-   9.743e-15   7.543e-15   -14.011   -14.122    -0.111     (0)  
   Ferric2(OH)2+4   3.272e-16   5.450e-18   -15.485   -17.264    -1.779     (0)  
   FerricCl3       7.296e-17   7.489e-17   -16.137   -16.126     0.011     (0)  
   FerricHSulfateO4+2   3.512e-18   1.262e-18   -17.454   -17.899    -0.445     (0)  
   Ferric3(OH)4+5   1.077e-19   1.792e-22   -18.968   -21.747    -2.779     (0)  
Ferrous       2.933e-08
   Ferrous(HSulfide)2   1.683e-08   1.728e-08    -7.774    -7.763     0.011     (0)  
   Ferrous+2       9.011e-09   3.481e-09    -8.045    -8.458    -0.413     (0)  
   FerrousHCO3+    2.492e-09   1.929e-09    -8.604    -8.715    -0.111     (0)  
   FerrousSulfateO4   4.164e-10   4.274e-10    -9.380    -9.369     0.011     (0)  
   FerrousCl+      2.720e-10   2.106e-10    -9.565    -9.677    -0.111     (0)  
   Ferrous(HSulfide)3-   1.813e-10   1.404e-10    -9.741    -9.853    -0.111     (0)  
   FerrousH2PO4+   7.081e-11   5.482e-11   -10.150   -10.261    -0.111     (0)  
   FerrousHPO4     2.792e-11   2.866e-11   -10.554   -10.543     0.011     (0)  
   FerrousCO3      2.241e-11   2.300e-11   -10.650   -10.638     0.011     (0)  
   FerrousOH+      1.503e-12   1.163e-12   -11.823   -11.934    -0.111     (0)  
   FerrousHSulfateO4+   3.424e-15   2.651e-15   -14.465   -14.577    -0.111     (0)  
Glutamine     8.913e-06
   Glutamine-2     8.909e-06   3.200e-06    -5.050    -5.495    -0.445     (0)  
   H2(Glutamine)   3.744e-09   3.843e-09    -8.427    -8.415     0.011     (0)  
   H(Glutamine)-   5.769e-10   4.466e-10    -9.239    -9.350    -0.111     (0)  
Glycine       1.534e-05
   Glycine-        1.528e-05   1.183e-05    -4.816    -4.927    -0.111     (0)  
   H2(Glycine)+    5.415e-08   4.192e-08    -7.266    -7.378    -0.111     (0)  
   H(Glycine)      2.379e-09   2.442e-09    -8.624    -8.612     0.011     (0)  
H(0)          8.057e-02
   H2              4.028e-02   4.135e-02    -1.395    -1.384     0.011     (0)  
K             6.960e-04
   K+              6.927e-04   5.229e-04    -3.159    -3.282    -0.122     (0)  
   KSulfateO4-     3.277e-06   2.537e-06    -5.485    -5.596    -0.111     (0)  
   KHPO4-          2.723e-09   2.108e-09    -8.565    -8.676    -0.111     (0)  
   KOH             1.866e-12   1.916e-12   -11.729   -11.718     0.011     (0)  
Methane       5.307e-07
   MethaneH4       5.307e-07   5.447e-07    -6.275    -6.264     0.011     (0)  
Mg            1.052e-02
   Mg+2            9.600e-03   3.782e-03    -2.018    -2.422    -0.405     (0)  
   MgSulfateO4     5.963e-04   6.121e-04    -3.225    -3.213     0.011     (0)  
   MgHCO3+         3.167e-04   2.452e-04    -3.499    -3.610    -0.111     (0)  
   MgHPO4          5.647e-06   5.797e-06    -5.248    -5.237     0.011     (0)  
   MgH2PO4+        5.001e-06   3.872e-06    -5.301    -5.412    -0.111     (0)  
   MgCO3           9.683e-07   9.940e-07    -6.014    -6.003     0.011     (0)  
   MgOH+           1.874e-08   1.451e-08    -7.727    -7.838    -0.111     (0)  
   MgPO4-          1.873e-08   1.450e-08    -7.727    -7.839    -0.111     (0)  
Na            1.652e-02
   Na+             1.643e-02   1.273e-02    -1.784    -1.895    -0.111     (0)  
   NaSulfateO4-    5.692e-05   4.407e-05    -4.245    -4.356    -0.111     (0)  
   NaHCO3          3.866e-05   3.968e-05    -4.413    -4.401     0.011     (0)  
   NaCO3-          8.436e-08   6.531e-08    -7.074    -7.185    -0.111     (0)  
   NaHPO4-         6.631e-08   5.134e-08    -7.178    -7.290    -0.111     (0)  
   NaOH            8.660e-11   8.890e-11   -10.062   -10.051     0.011     (0)  
Nitrate       1.116e-02
   NitrateO3-      1.116e-02   8.638e-03    -1.952    -2.064    -0.111     (0)  
O(0)          0.000e+00
   O2              0.000e+00   0.000e+00   -89.627   -89.616     0.011     (0)  
Ozero         1.575e-04
   Ozero2          7.876e-05   8.084e-05    -4.104    -4.092     0.011     (0)  
P             7.516e-05
   H2PO4-          4.092e-05   3.142e-05    -4.388    -4.503    -0.115     (0)  
   CaHPO4          8.906e-06   9.142e-06    -5.050    -5.039     0.011     (0)  
   CaH2PO4+        8.374e-06   6.483e-06    -5.077    -5.188    -0.111     (0)  
   HPO4-2          6.192e-06   2.068e-06    -5.208    -5.685    -0.476     (0)  
   MgHPO4          5.647e-06   5.797e-06    -5.248    -5.237     0.011     (0)  
   MgH2PO4+        5.001e-06   3.872e-06    -5.301    -5.412    -0.111     (0)  
   NaHPO4-         6.631e-08   5.134e-08    -7.178    -7.290    -0.111     (0)  
   CaPO4-          2.961e-08   2.292e-08    -7.529    -7.640    -0.111     (0)  
   MgPO4-          1.873e-08   1.450e-08    -7.727    -7.839    -0.111     (0)  
   KHPO4-          2.723e-09   2.108e-09    -8.565    -8.676    -0.111     (0)  
   FerrousH2PO4+   7.081e-11   5.482e-11   -10.150   -10.261    -0.111     (0)  
   FerrousHPO4     2.792e-11   2.866e-11   -10.554   -10.543     0.011     (0)  
   PO4-3           1.166e-11   9.879e-13   -10.933   -12.005    -1.072     (0)  
   FerricH2PO4+2   1.553e-12   5.578e-13   -11.809   -12.254    -0.445     (0)  
   FerricHPO4+     4.741e-14   3.671e-14   -13.324   -13.435    -0.111     (0)  
Sulfate       3.674e-03
   SulfateO4-2     1.933e-03   6.905e-04    -2.714    -3.161    -0.447     (0)  
   CaSulfateO4     1.082e-03   1.111e-03    -2.966    -2.954     0.011     (0)  
   MgSulfateO4     5.963e-04   6.121e-04    -3.225    -3.213     0.011     (0)  
   NaSulfateO4-    5.692e-05   4.407e-05    -4.245    -4.356    -0.111     (0)  
   KSulfateO4-     3.277e-06   2.537e-06    -5.485    -5.596    -0.111     (0)  
   AmmH4SulfateO4-   2.765e-06   2.141e-06    -5.558    -5.669    -0.111     (0)  
   HSulfateO4-     8.181e-08   6.334e-08    -7.087    -7.198    -0.111     (0)  
   CaHSulfateO4+   7.932e-09   6.141e-09    -8.101    -8.212    -0.111     (0)  
   FerrousSulfateO4   4.164e-10   4.274e-10    -9.380    -9.369     0.011     (0)  
   FerricSulfateO4+   6.450e-13   4.993e-13   -12.190   -12.302    -0.111     (0)  
   Ferric(SulfateO4)2-   9.743e-15   7.543e-15   -14.011   -14.122    -0.111     (0)  
   FerrousHSulfateO4+   3.424e-15   2.651e-15   -14.465   -14.577    -0.111     (0)  
   FerricHSulfateO4+2   3.512e-18   1.262e-18   -17.454   -17.899    -0.445     (0)  
Sulfide       6.990e-04
   H2Sulfide       5.997e-04   6.156e-04    -3.222    -3.211     0.011     (0)  
   HSulfide-       9.925e-05   7.462e-05    -4.003    -4.127    -0.124     (0)  
   Ferrous(HSulfide)2   1.683e-08   1.728e-08    -7.774    -7.763     0.011     (0)  
   Ferrous(HSulfide)3-   1.813e-10   1.404e-10    -9.741    -9.853    -0.111     (0)  
   Sulfide-2       2.646e-11   9.553e-12   -10.577   -11.020    -0.442     (0)  
Threonine     8.913e-06
   Threonine-2     8.909e-06   3.200e-06    -5.050    -5.495    -0.445     (0)  
   H2(Threonine)   3.659e-09   3.756e-09    -8.437    -8.425     0.011     (0)  
   H(Threonine)-   5.509e-10   4.265e-10    -9.259    -9.370    -0.111     (0)  
Tyrosine      8.913e-06
   Tyrosine-2      8.909e-06   3.200e-06    -5.050    -5.495    -0.445     (0)  
   H2(Tyrosine)    3.575e-09   3.670e-09    -8.447    -8.435     0.011     (0)  
   H(Tyrosine)-    6.182e-10   4.786e-10    -9.209    -9.320    -0.111     (0)  

------------------------------Saturation indices-------------------------------

  Phase               SI** log IAP   log K(298 K,   0 atm)

  FixpH            -6.03     -6.03    0.00  H+
  H2(g)             1.77     -1.38   -3.15  H2
  H2O(g)           -1.51     -0.00    1.51  H2O
  Halite           -4.84     -3.25    1.58  NaCl
  Hydroxyapatite   -0.00     -3.42   -3.42  Ca5(PO4)3OH
  ORM             805.19    -74.04 -879.23  C5H4O2Amm
  redoxAnhydrite   -0.89     -5.25   -4.36  CaSulfateO4
  redoxAragonite   -0.32     -8.65   -8.34  CaCO3
  redoxCalcite     -0.17     -8.65   -8.48  CaCO3
  redoxCH4(g)      -3.40     -6.26   -2.86  MethaneH4
  redoxCO2(g)      -0.46     -1.93   -1.47  CO2
  redoxDolomite    -0.55    -17.64  -17.09  CaMg(CO3)2
  redoxFe(OH)3(a)   0.00      4.89    4.89  Ferric(OH)3
  redoxFeS(ppt)    -2.65     -6.56   -3.92  FerrousSulfide
  redoxGoethite     5.89      4.89   -1.00  FerricOOH
  redoxGypsum      -0.68     -5.26   -4.58  CaSulfateO4:2H2O
  redoxH2S(g)      -2.21     -3.21   -1.00  H2Sulfide
  redoxHematite    13.79      9.79   -4.01  Ferric2O3
  redoxJarosite-K  -3.79    -13.00   -9.21  KFerric3(SulfateO4)2(OH)6
  redoxMackinawite  -1.91     -6.56   -4.65  FerrousSulfide
  redoxMelanterite  -9.42    -11.63   -2.21  FerrousSulfateO4:7H2O
  redoxNH3(g)      -8.61     -6.84    1.77  AmmH3
  redoxO2(g)       -1.20     -4.09   -2.89  Ozero2
  redoxPyrite       0.00    -18.48  -18.48  FerrousSulfide2
  redoxSiderite    -4.13    -15.02  -10.89  FerrousCO3
  redoxSulfur      -9.86     -4.98    4.88  Sulfide
  redoxVivianite  -13.40    -49.40  -36.00  Ferrous3(PO4)2:8H2O

**For a gas, SI = log10(fugacity). Fugacity = pressure * phi / 1 atm.
  For ideal gases, phi = 1.

------------------
End of simulation.
------------------

------------------------------------
Reading input data for simulation 4.
------------------------------------

---------------------------------
End of Run after 46.7381 Seconds.
---------------------------------

