   Input file: fixp_redox_sw5.phrq
  Output file: fixp_redox_sw5.phrq.out
Database file: ../database/redox.dat

------------------
Reading data base.
------------------

	SOLUTION_MASTER_SPECIES
	SOLUTION_SPECIES
	PHASES
	EXCHANGE_MASTER_SPECIES
	EXCHANGE_SPECIES
	SURFACE_MASTER_SPECIES
	SURFACE_SPECIES
	RATES
	END
------------------------------------
Reading input data for simulation 1.
------------------------------------

	DATABASE ../database/redox.dat
	TITLE  MEND and redox coupling
	CALCULATE_VALUES
	SC_T25
	 start
	 10 sc25 = SC/(1+0.021*(temperature-25))   #in us/cm
	 20 SAVE sc25
	 end
	fsl1    ##more sensitive (green)
	 start
	 10 fsl1 = 1 / (1.0 + exp(1.68 * (log10(CALC_VALUE("SC_T25")/1000)+0.26))) #log(ds/m)
	 40 SAVE fsl1
	 end
	fsl2     ##medium (purple)
	 start
	 10 fsl2 = 1 / (1.0 + exp(2.28 * (log10(CALC_VALUE("SC_T25")/1000)-0.60)))  #log(ds/m)
	 40 SAVE fsl2
	 end
	fsl3     ##medium (red)
	 start
	 10 fsl3 = 1 / (1.0 + exp(2.23 * (log10(CALC_VALUE("SC_T25")/1000)-1.11)))  #log(ds/m)
	 40 SAVE fsl3
	 end
	fsl4    ##more resistant (black)
	 start
	 10 fsl4 = 1 / (1.0 + exp(4.03 * (log10(CALC_VALUE("SC_T25")/1000)-1.78)))  #log(ds/m)
	 40 SAVE fsl4
	 end
	SOLUTION 1    
	units umol/L        #3.774L total volume  ##based on clay fresh system
	pH    7  charge
	temperature 	 25
	water         1.887   #default is 1 kg
	P           5
	Amm         38
	Na          114
	Ca          183
	Cl          133 
	Sulfate     4 
	K           28
	Mg          79
	C(4)        9  
	Nitrate        0
	Ferric       50
	Alanine      52
	Cysteine     52
	Glycine      52
	Glutamine    52
	Threonine    52
	Tyrosine     52
	Ozero        600    redoxO2(g) -0.7
	Methane      1
	Sulfide      0.1
	  SAVE SOLUTION 1
	END
-----
TITLE
-----

  MEND and redox coupling

-------------------------------------------
Beginning of initial solution calculations.
-------------------------------------------

Initial solution 1.	

-----------------------------Solution composition------------------------------

	Elements           Molality       Moles

	Alanine           5.200e-05   9.813e-05
	Amm               3.800e-05   7.171e-05
	C(4)              9.001e-06   1.698e-05
	Ca                1.830e-04   3.453e-04
	Cl                1.330e-04   2.510e-04
	Cysteine          5.200e-05   9.813e-05
	Ferric            5.000e-05   9.436e-05
	Glutamine         5.200e-05   9.813e-05
	Glycine           5.200e-05   9.813e-05
	K                 2.800e-05   5.284e-05
	Methane           1.000e-06   1.887e-06
	Mg                7.901e-05   1.491e-04
	Na                1.140e-04   2.151e-04
	Ozero             5.111e-04   9.645e-04  Equilibrium with redoxO2(g)
	P                 5.000e-06   9.436e-06
	Sulfate           4.000e-06   7.549e-06
	Sulfide           1.000e-07   1.887e-07
	Threonine         5.200e-05   9.813e-05
	Tyrosine          5.200e-05   9.813e-05

----------------------------Description of solution----------------------------

                                       pH  =   6.951      Charge balance
                                       pe  =   4.000    
      Specific Conductance (µS/cm,  25°C)  = 49
                        Activity of water  =   1.000
                 Ionic strength (mol/kgw)  =   1.254e-03
                       Mass of water (kg)  =   1.887e+00
                 Total alkalinity (eq/kg)  =   3.480e-04
                       Total CO2 (mol/kg)  =   9.001e-06
                         Temperature (°C)  =  25.00
                  Electrical balance (eq)  =   1.862e-17
 Percent error, 100*(Cat-|An|)/(Cat+|An|)  =   0.00
                               Iterations  =   8
                                  Total H  = 2.094810e+02
                                  Total O  = 1.047406e+02

----------------------------Distribution of species----------------------------

                                               Log       Log       Log    mole V
   Species          Molality    Activity  Molality  Activity     Gamma   cm³/mol

   H+              1.163e-07   1.120e-07    -6.935    -6.951    -0.016      0.00
   OH-             9.305e-08   8.941e-08    -7.031    -7.049    -0.017     (0)  
   H2O             5.551e+01   1.000e+00     1.744    -0.000     0.000     18.07
Alanine       5.200e-05
   Alanine-2       5.200e-05   4.436e-05    -4.284    -4.353    -0.069     (0)  
   H2(Alanine)     4.121e-09   4.123e-09    -8.385    -8.385     0.000     (0)  
   H(Alanine)-     1.157e-09   1.112e-09    -8.937    -8.954    -0.017     (0)  
Amm           3.800e-05
   AmmH4+          3.782e-05   3.632e-05    -4.422    -4.440    -0.018     (0)  
   AmmH3           1.848e-07   1.848e-07    -6.733    -6.733     0.000     (0)  
   AmmH4SulfateO4-   1.598e-09   1.536e-09    -8.796    -8.814    -0.017     (0)  
C(4)          9.001e-06
   HCO3-           7.227e-06   6.949e-06    -5.141    -5.158    -0.017     (0)  
   CO2             1.749e-06   1.750e-06    -5.757    -5.757     0.000     (0)  
   CaHCO3+         1.441e-08   1.385e-08    -7.841    -7.858    -0.017     (0)  
   MgHCO3+         5.710e-09   5.487e-09    -8.243    -8.261    -0.017     (0)  
   CO3-2           3.404e-09   2.911e-09    -8.468    -8.536    -0.068     (0)  
   CaCO3           7.637e-10   7.639e-10    -9.117    -9.117     0.000     (0)  
   NaHCO3          4.281e-10   4.283e-10    -9.368    -9.368     0.000     (0)  
   MgCO3           1.874e-10   1.874e-10    -9.727    -9.727     0.000     (0)  
   NaCO3-          6.180e-12   5.940e-12   -11.209   -11.226    -0.017     (0)  
Ca            1.830e-04
   Ca+2            1.827e-04   1.562e-04    -3.738    -3.806    -0.068     (0)  
   CaHPO4          1.339e-07   1.339e-07    -6.873    -6.873     0.000     (0)  
   CaSulfateO4     1.023e-07   1.023e-07    -6.990    -6.990     0.000     (0)  
   CaHCO3+         1.441e-08   1.385e-08    -7.841    -7.858    -0.017     (0)  
   CaH2PO4+        1.173e-08   1.127e-08    -7.931    -7.948    -0.017     (0)  
   CaPO4-          2.944e-09   2.829e-09    -8.531    -8.548    -0.017     (0)  
   CaCO3           7.637e-10   7.639e-10    -9.117    -9.117     0.000     (0)  
   CaOH+           2.410e-10   2.316e-10    -9.618    -9.635    -0.017     (0)  
   CaHSulfateO4+   6.984e-14   6.712e-14   -13.156   -13.173    -0.017     (0)  
Cl            1.330e-04
   Cl-             1.330e-04   1.278e-04    -3.876    -3.893    -0.017     (0)  
   FerricCl+2      6.028e-16   5.142e-16   -15.220   -15.289    -0.069     (0)  
   FerricCl2+      3.055e-19   2.936e-19   -18.515   -18.532    -0.017     (0)  
   FerricCl3       3.751e-24   3.752e-24   -23.426   -23.426     0.000     (0)  
Cysteine      5.200e-05
   Cysteine-2      5.197e-05   4.433e-05    -4.284    -4.353    -0.069     (0)  
   H2(Cysteine)    3.348e-08   3.349e-08    -7.475    -7.475     0.000     (0)  
   H(Cysteine)-    2.649e-10   2.546e-10    -9.577    -9.594    -0.017     (0)  
Ferric        5.000e-05
   Ferric(OH)3     2.613e-05   2.614e-05    -4.583    -4.583     0.000     (0)  
   Ferric(OH)2+    2.364e-05   2.272e-05    -4.626    -4.644    -0.017     (0)  
   Ferric(OH)4-    2.215e-07   2.129e-07    -6.655    -6.672    -0.017     (0)  
   FerricOH+2      9.006e-09   7.683e-09    -8.045    -8.114    -0.069     (0)  
   Ferric+3        1.870e-13   1.332e-13   -12.728   -12.875    -0.147     (0)  
   FerricH2PO4+2   1.185e-13   1.011e-13   -12.926   -12.995    -0.069     (0)  
   FerricHPO4+     5.833e-14   5.605e-14   -13.234   -13.251    -0.017     (0)  
   FerricSulfateO4+   4.990e-15   4.795e-15   -14.302   -14.319    -0.017     (0)  
   Ferric2(OH)2+4   3.000e-15   1.589e-15   -14.523   -14.799    -0.276     (0)  
   FerricCl+2      6.028e-16   5.142e-16   -15.220   -15.289    -0.069     (0)  
   Ferric3(OH)4+5   2.036e-17   7.541e-18   -16.691   -17.123    -0.431     (0)  
   Ferric(SulfateO4)2-   3.583e-19   3.444e-19   -18.446   -18.463    -0.017     (0)  
   FerricCl2+      3.055e-19   2.936e-19   -18.515   -18.532    -0.017     (0)  
   FerricHSulfateO4+2   1.685e-21   1.438e-21   -20.773   -20.842    -0.069     (0)  
   FerricCl3       3.751e-24   3.752e-24   -23.426   -23.426     0.000     (0)  
Glutamine     5.200e-05
   Glutamine-2     5.200e-05   4.436e-05    -4.284    -4.353    -0.069     (0)  
   H(Glutamine)-   7.645e-10   7.347e-10    -9.117    -9.134    -0.017     (0)  
   H2(Glutamine)   7.500e-10   7.502e-10    -9.125    -9.125     0.000     (0)  
Glycine       5.200e-05
   Glycine-        5.200e-05   4.997e-05    -4.284    -4.301    -0.017     (0)  
   H2(Glycine)+    2.595e-09   2.494e-09    -8.586    -8.603    -0.017     (0)  
   H(Glycine)      1.224e-09   1.224e-09    -8.912    -8.912     0.000     (0)  
H(0)          1.775e-25
   H2              8.873e-26   8.875e-26   -25.052   -25.052     0.000     (0)  
K             2.800e-05
   K+              2.800e-05   2.691e-05    -4.553    -4.570    -0.017     (0)  
   KSulfateO4-     6.457e-10   6.206e-10    -9.190    -9.207    -0.017     (0)  
   KHPO4-          8.533e-11   8.200e-11   -10.069   -10.086    -0.017     (0)  
   KOH             8.329e-13   8.332e-13   -12.079   -12.079     0.000     (0)  
Methane       1.000e-06
   MethaneH4       1.000e-06   1.000e-06    -6.000    -6.000     0.000     (0)  
Mg            7.901e-05
   Mg+2            7.886e-05   6.748e-05    -4.103    -4.171    -0.068     (0)  
   MgHPO4          7.818e-08   7.820e-08    -7.107    -7.107     0.000     (0)  
   MgSulfateO4     5.192e-08   5.193e-08    -7.285    -7.285     0.000     (0)  
   MgH2PO4+        6.450e-09   6.199e-09    -8.190    -8.208    -0.017     (0)  
   MgHCO3+         5.710e-09   5.487e-09    -8.243    -8.261    -0.017     (0)  
   MgOH+           2.277e-09   2.188e-09    -8.643    -8.660    -0.017     (0)  
   MgPO4-          1.715e-09   1.649e-09    -8.766    -8.783    -0.017     (0)  
   MgCO3           1.874e-10   1.874e-10    -9.727    -9.727     0.000     (0)  
Na            1.140e-04
   Na+             1.140e-04   1.096e-04    -3.943    -3.960    -0.017     (0)  
   NaSulfateO4-    1.876e-09   1.803e-09    -8.727    -8.744    -0.017     (0)  
   NaHCO3          4.281e-10   4.283e-10    -9.368    -9.368     0.000     (0)  
   NaHPO4-         3.475e-10   3.340e-10    -9.459    -9.476    -0.017     (0)  
   NaOH            6.464e-12   6.466e-12   -11.189   -11.189     0.000     (0)  
   NaCO3-          6.180e-12   5.940e-12   -11.209   -11.226    -0.017     (0)  
O(0)          0.000e+00
   O2              0.000e+00   0.000e+00   -42.277   -42.276     0.000     (0)  
Ozero         5.111e-04
   Ozero2          2.556e-04   2.556e-04    -3.592    -3.592     0.000     (0)  
P             5.000e-06
   H2PO4-          2.933e-06   2.819e-06    -5.533    -5.550    -0.017     (0)  
   HPO4-2          1.832e-06   1.563e-06    -5.737    -5.806    -0.069     (0)  
   CaHPO4          1.339e-07   1.339e-07    -6.873    -6.873     0.000     (0)  
   MgHPO4          7.818e-08   7.820e-08    -7.107    -7.107     0.000     (0)  
   CaH2PO4+        1.173e-08   1.127e-08    -7.931    -7.948    -0.017     (0)  
   MgH2PO4+        6.450e-09   6.199e-09    -8.190    -8.208    -0.017     (0)  
   CaPO4-          2.944e-09   2.829e-09    -8.531    -8.548    -0.017     (0)  
   MgPO4-          1.715e-09   1.649e-09    -8.766    -8.783    -0.017     (0)  
   NaHPO4-         3.475e-10   3.340e-10    -9.459    -9.476    -0.017     (0)  
   KHPO4-          8.533e-11   8.200e-11   -10.069   -10.086    -0.017     (0)  
   PO4-3           9.000e-12   6.294e-12   -11.046   -11.201    -0.155     (0)  
   FerricH2PO4+2   1.185e-13   1.011e-13   -12.926   -12.995    -0.069     (0)  
   FerricHPO4+     5.833e-14   5.605e-14   -13.234   -13.251    -0.017     (0)  
Sulfate       4.000e-06
   SulfateO4-2     3.842e-06   3.283e-06    -5.415    -5.484    -0.068     (0)  
   CaSulfateO4     1.023e-07   1.023e-07    -6.990    -6.990     0.000     (0)  
   MgSulfateO4     5.192e-08   5.193e-08    -7.285    -7.285     0.000     (0)  
   NaSulfateO4-    1.876e-09   1.803e-09    -8.727    -8.744    -0.017     (0)  
   AmmH4SulfateO4-   1.598e-09   1.536e-09    -8.796    -8.814    -0.017     (0)  
   KSulfateO4-     6.457e-10   6.206e-10    -9.190    -9.207    -0.017     (0)  
   HSulfateO4-     3.718e-11   3.573e-11   -10.430   -10.447    -0.017     (0)  
   CaHSulfateO4+   6.984e-14   6.712e-14   -13.156   -13.173    -0.017     (0)  
   FerricSulfateO4+   4.990e-15   4.795e-15   -14.302   -14.319    -0.017     (0)  
   Ferric(SulfateO4)2-   3.583e-19   3.444e-19   -18.446   -18.463    -0.017     (0)  
   FerricHSulfateO4+2   1.685e-21   1.438e-21   -20.773   -20.842    -0.069     (0)  
Sulfide       1.000e-07
   HSulfide-       5.154e-08   4.952e-08    -7.288    -7.305    -0.017     (0)  
   H2Sulfide       4.847e-08   4.848e-08    -7.315    -7.314     0.000     (0)  
   Sulfide-2       6.251e-14   5.342e-14   -13.204   -13.272    -0.068     (0)  
Threonine     5.200e-05
   Threonine-2     5.200e-05   4.436e-05    -4.284    -4.353    -0.069     (0)  
   H2(Threonine)   7.330e-10   7.332e-10    -9.135    -9.135     0.000     (0)  
   H(Threonine)-   7.301e-10   7.016e-10    -9.137    -9.154    -0.017     (0)  
Tyrosine      5.200e-05
   Tyrosine-2      5.200e-05   4.436e-05    -4.284    -4.353    -0.069     (0)  
   H(Tyrosine)-    8.191e-10   7.872e-10    -9.087    -9.104    -0.017     (0)  
   H2(Tyrosine)    7.163e-10   7.165e-10    -9.145    -9.145     0.000     (0)  

------------------------------Saturation indices-------------------------------

  Phase               SI** log IAP   log K(298 K,   1 atm)

  FixpH            -6.95     -6.95    0.00  H+
  H2(g)           -21.90    -25.05   -3.15  H2
  H2O(g)           -1.51     -0.00    1.51  H2O
  Halite           -9.44     -7.85    1.58  NaCl
  Hydroxyapatite   -5.22     -8.65   -3.42  Ca5(PO4)3OH
  ORM             829.47    -49.76 -879.23  C5H4O2Amm
  redoxAnhydrite   -4.93     -9.29   -4.36  CaSulfateO4
  redoxAragonite   -4.01    -12.34   -8.34  CaCO3
  redoxCalcite     -3.86    -12.34   -8.48  CaCO3
  redoxCH4(g)      -3.14     -6.00   -2.86  MethaneH4
  redoxCO2(g)      -4.29     -5.76   -1.47  CO2
  redoxDolomite    -7.96    -25.05  -17.09  CaMg(CO3)2
  redoxFe(OH)3(a)   3.09      7.98    4.89  Ferric(OH)3
  redoxGoethite     8.98      7.98   -1.00  FerricOOH
  redoxGypsum      -4.71     -9.29   -4.58  CaSulfateO4:2H2O
  redoxH2S(g)      -6.32     -7.31   -1.00  H2Sulfide
  redoxHematite    19.96     15.95   -4.01  Ferric2O3
  redoxJarosite-K  -3.25    -12.46   -9.21  KFerric3(SulfateO4)2(OH)6
  redoxNH3(g)      -8.50     -6.73    1.77  AmmH3
  redoxO2(g)       -0.70     -3.59   -2.89  Ozero2
  redoxSulfur       9.71     14.59    4.88  Sulfide

**For a gas, SI = log10(fugacity). Fugacity = pressure * phi / 1 atm.
  For ideal gases, phi = 1.

------------------
End of simulation.
------------------

------------------------------------
Reading input data for simulation 2.
------------------------------------

	GAS_PHASE 1 fixed volume gas phase
	  fixed_volume
	  volume	   0.9  #(L)  calculate air pore space
	  temperature 	 25.0
	  redoxO2(g)   0.29
	  redoxCH4(g)  0.0
	  redoxCO2(g)  0.000316
	  SAVE GAS_PHASE 1
	END
------------------
End of simulation.
------------------

------------------------------------
Reading input data for simulation 3.
------------------------------------

	USE SOLUTION 1
	USE GAS_PHASE 1
	EXCHANGE_SPECIES
	 X- = X-
	 log_k 0     #semicolon is logical end of line
	 X- + AmmH4+ = AmmH4X
	  log_k  0.25   #define the half-reactions of ion change
	 2X- + Ca+2  = CaX2
	    log_k  0.4    $logK's relative 
	 2X- + Mg+2  = MgX2
	    log_k  0.5
	 X- + Na+  = NaX
	      log_k  0.0
	 X- + K+  = KX
	       log_k  0.2
	EXCHANGE 1   #exchanger in equilibirium 
	  X         16  #exchanger amount in mol
	  equilibrate with solution 1
	  exchange_gammas   true
	EQUILIBRIUM_PHASES 1
	  redoxO2(g)       -1.2  1     #fixed partial pressure approach
	  redoxCalcite      0  0.001     #CaCo3
	  redoxFeS(ppt)     0  0.001     #FeS
	  Hydroxyapatite    0  0.001     #Ca5(PO4)3OH
	  redoxPyrite       0  0.001     #FeS2
	  redoxFe(OH)3(a)   0  2   
	SURFACE 1
	 Hfo_wOH 2e-4  600  280  #site density (per nm2), SSA (m2/g), gram
	 Hfo_sOH 5e-6
	donnan 1e-8   #defuse layer thickness
	  H_a   3.837E-02  3.417E+04     80  ##gram of SOM for exchange
	  H_b   3.837E-02
	 H_c   3.837E-02
	 H_d  3.837E-02
	  H_e   1.919E-02
	 H_f   1.919E-02
	 H_g  1.919E-02
	 H_h  1.919E-02
	  H_ab  6.378E-02
	 H_ad  6.378E-02
	 H_af  6.378E-02
	 H_ah  6.378E-02
	  H_bc  6.378E-02
	 H_be  6.378E-02
	 H_bg  6.378E-05
	 H_cd  6.378E-05
	  H_cf  6.378E-02
	 H_ch  6.378E-02
	 H_de  6.378E-05
	 H_dg  6.378E-05
	 equilibrate with solution 1
	USE SOLUTION 1
	KINETICS  Decomposition  ##in mgC per g soil, redox reaction stoichiometry based on per biomassC
	cvode
	BA
	   m0   0.52
	   formula CH2O 0.0  
	   parms 1.04 0.25 0.001 0.4 0.02  #parm(1)=Vd, parm(2)=Kd, parm(3)=PEP, parm(4)=CUE, parm(5)=kb
	OAC
	   m0  0.001
	   formula CH2O 0.0   
	   parms  0.2  0.25
	Aero
	   formula CH2O 0.0   Ozero2  1.44   HCO3 -1.44  #C 2.44
	   parms  4   0.5  0.05   #Vmax, Koc, Ko2
	SulR
	   formula CH2O 0.0   SulfateO4-2  4.5   HSulfide-  -4.5  HCO3 -9    #C 10
	   parms  0.5   0.1   4   #Vmax, Koc, Kso4
	Meth
	   formula CH2O 0.0     MethaneH4 -20.24  HCO3 20.24   #C 41.48
	   parms  0.25   0.6  0.1   #Vmax, Koc, KI_O2
	POM
	   m0   4.71
	   formula CH2O 0.0  
	   parms 33.8  50  0  0.5   #vp1, kp1, Ip1, gD-fraction of dead BA to D
	MOM
	   m0   15.9
	   formula CH2O 0.0
	   parms 0.2  250 0.5   #vm, km, fD- fraction of decomposed p1/p2 to D
	DOM
	   m0   0.48
	   formula CH2O 0.0
	   parms  0.5  0.25  0
	QOM
	   m0   1.767
	   formula CH2O 0.0
	   parms 0.006 0.5  0.001   #adsorption constant, Qmax, desorption constant
	EP
	   m0   0.052
	   formula CH2O 0.0
	   parms  0.001
	EM
	   m0   0.052
	   formula CH2O 0.0
	   parms  0.001
	respiration
	   m0   0
	   formula CH2O 0.0 
	   parms  0.4
	Tot
	   m0   23.484
	   formula CH2O 0.0
	Salt  ##saltwater ion stoichiometry
	   m0   0.001
	   formula  CH2O 0.0   Cl-  -20  Sulfate  -5   Na+  -25   K+  -1    Ca+2  -2  Mg+2  -4   HCO3  -3  Nitrate -5 
	   parms 0.01  ## mol per gram soil per day
	Caero
	   m0   0
	   formula CH2O 0.0
	Csulr
	   m0   0
	   formula CH2O 0.0
	Cmeth
	   m0   0
	   formula CH2O 0.0
	   steps 100 in 100 steps #day
	  INCREMENTAL_REACTIONS true
	RATES
	BA
	   start
	    10 mDOM= kin("DOM")*0.8
	    20 bio = kin("BA")
	    30 uptake= parm(1)* bio * mDOM/(parm(2)+mDOM)   #parm(1)=Vd, parm(2)=Kd
	    40 put(uptake, 1) #microbil uptake flux                                      
	    50 decay=(1-parm(3)*2)*bio*parm(5)     #parm(3)=pEP=pEM (exoemzyme production rate); 0.1*Vd=biomass decay rate
	    60 put(decay, 2)                                           ##maintenance respiration
	    70 pexo = parm(3)*bio   #exoenzyme production enzyme production rate=0.1*Vd
	    80 put(pexo, 3)                                             ##mortality
	    90 rate = get(1)*parm(4)-get(2)-get(3)-get(3)+get(11)*get(11)/(get(11)+get(12)+get(13))+get(12)*get(12)/(get(11)+get(12)+get(13))+get(13)*get(13)/(get(11)+get(12)+get(13)) #parm(4)=CUE
	    100 save -rate * time 
	   end
	OAC
	   start
	    10 mDOM= kin("DOM")
	    20 rate = parm(1)* mDOM+parm(2)* get(2)-get(11)*2.44*get(11)/(get(11)+get(12)+get(13))-get(12)*10*get(12)/(get(11)+get(12)+get(13))-get(13)*41.48*get(13)/(get(11)+get(12)+get(13))  #C stoichiometry for redox reactions
	    30 put(rate, 14)
	    100 save -rate * time 
	   end
	Aero
	  start
	   10 mDOM= kin("OAC")/12
	   20 bio = kin("BA")/12
	   30 DO= mol("Ozero2")*1000
	   40 donor = mDOM/(parm(2)+mDOM)
	   50 accp = DO/(parm(3)+DO)
	   60 rate = parm(1)* bio * donor * accp
	   70 put(rate, 11)
	   80 final = rate*get(11)/(get(11)+get(12)+get(13))
	  100 save -final* time
	  end
	SulR
	  start
	   10 mDOM= kin("OAC")/12
	   20 bio = 0.6*kin("BA")/12
	   30 DO = mol("Ozero2")*1000
	   40 SO = mol("SulfateO4-2")*1000
	   50 donor = mDOM/(parm(2)+mDOM)
	   60 acc = SO/(parm(3)+SO)
	   70 rate = parm(1)* bio * donor * acc
	   80 put(rate, 12)
	   90 final = rate*get (12)/(get(11)+get(12)+get(13))
	  100 save -final * time
	  end
	Meth
	  start
	   10 mDOM= kin("OAC")/12
	   11 if(kin("OAC")<= 0.15) then mDOM=0
	   20 bio = 0.2*kin("BA")/12
	   30 DO = mol("Ozero2")*1000
	   50 donor = mDOM/(parm(2)+mDOM)
	   60 inhib = parm(3)/(DO+parm(3))
	   70 rate =  parm(1)* bio * donor 
	   80 put(rate, 13)
	   90 final = rate*get (13)/(get(11)+get(12)+get(13))
	  100 save -final * time
	  end
	POM
	   start
	    10 mPOM = kin("POM")
	    20 ep = kin("EP")
	    30 deco = parm(1) * ep * mPOM/(parm(2)+mPOM) # parm(1)=Vp, parm(2)=Kp
	    40 put (deco, 4)  #POM decomposition
	    50 rate = (1-parm(4))*get(2)-get(4)  #parm(3)=input, parm(4)=gD, fraction of decayed biomass C going to DOM pool
	    100 save -rate * time
	   end
	MOM
	   start
	    10 mMOM = kin("MOM")
	    20 em = kin("EM")
	    30 flux = parm(1) * em * mMOM /(parm(2)+ mMOM) # parm(1)=VM, parm(2)=KM
	    40 put(flux,5)  #MOM decomposition flux
	    50 rate = (1-parm(3))*get(4)-get(5)  #parm(3)=fD_fraction of decomposed P to D
	    100 save -rate*time
	   end
	DOM
	   start
	    10 rate = (1-parm(1))*get(4)+parm(2)* get(2)+get(5)+(get(8)+get(9))-get(1)-(get(6)-get(7))-get(14)
	    100 save -rate* time
	   end
	QOM
	   start
	    10 mQOM = kin("QOM")
	    20 D = kin("DOM")
	    30 flux1 = parm(1) * (1-mQOM/parm(2))* D #adsorption flux, parm(1)=adsorption constant, parm(2)=Qmax
	    40 put(flux1,6)  #adsorption flux
	    50 flux2 = parm(3) * (mQOM/parm(2)) #parm(3)=desorption constant, parm(2)=Qmax
	    60 put(flux2,7)  #desorption flux
	    70 rate = get(6)-get(7)
	    100 save -rate * time
	   end
	EP
	   start
	    10 ep = kin("EP")
	    20 flux1 = parm(1)*ep #enzyme decay
	    30 put (flux1,8)
	    40 rate = get(3)-get(8)
	    100 save -rate * time
	   end
	EM
	   start
	    10 em = kin("EM")
	    20 flux1= parm(1)* em
	    30 put (flux1,9)
	    40 rate = get(3)-get(9)
	    100  save -rate * time
	   end
	respiration
	   start
	    10 rate = (1- parm(1))*get(1)+(get(11)*1.44*get(11)/(get(11)+get(12)+get(13))+get(12)*9*get(12)/(get(11)+get(12)+get(13))-get(13)*20.24*get(13)/(get(11)+get(12)+get(13)))*12 #parm(1)=CUE
	    20 put (rate, 10)
	    30 save -rate * time
	   end
	Tot
	   start
	    10 rate = -get(10)-(GAS('redoxCH4(g)')+tot('CH4'))*12
	    20 save -rate * time
	   end
	Salt
	   start
	    10 salt=kin("salt")
	    20 rate = parm(1)*(0.10-salt)   ## The incoming concentration is important
	    30 save -rate * time
	   end
	Caero
	   start
	    10 rate = get(11)*2.44*get (11)/(get(11)+get(12)+get(13))
	    30 save -rate * time
	   end
	Csulr
	   start
	    10 rate = get(12)*10*get (12)/(get(11)+get(12)+get(13))
	    30 save -rate * time
	   end
	Cmeth
	   start
	    10 rate = get(13)*41.48*get (13)/(get(11)+get(12)+get(13))
	    30 save -rate * time
	   end
	SELECTED_OUTPUT
	  reset false
	   pe true
	  file fixp_redox_sw5.txt
	USER_PUNCH
	  start
	  heading Time pH  Ozero HS CH4 CO2g CO2 SC  fsl1  fsl2  fsl3  fsl4 POM MOM QOM DOM BA EP EM IC Total OrgAcid Aero SulR Meth Caero Csulr Cmeth Na  K  Ca  Mg  PO4  Cl  SO4 NH4 HCO3 FeS Pyrite 
	  10 PUNCH SIM_TIME
	  20 PUNCH -la("H+")
	  30 PUNCH mol("Ozero2")  tot('Sulfide')
	  40 PUNCH GAS('redoxCH4(g)')+tot('CH4')  GAS('redoxCO2(g)')  tot('C(4)')
	  50 PUNCH CALC_VALUE ("SC_T25")
	  60 PUNCH CALC_VALUE("fsl1")  CALC_VALUE("fsl2")  CALC_VALUE("fsl3")  CALC_VALUE("fsl4")
	  70 PUNCH kin('POM') kin('MOM') kin('QOM') kin('DOM') kin('BA') kin('EP') kin('EM') 
	  80 PUNCH kin('respiration') kin("Tot") kin('OAC') kin('Aero')  kin('SulR')  kin('Meth')
	  90 PUNCH kin('Caero') kin('Csulr') kin('Cmeth')
	  100 PUNCH tot("Na")  tot("K")  mol("Ca+2")  tot("Mg") tot("P")  tot("Cl")  tot("Sulfate") tot ("Amm")  tot("C(4)")
	  110 PUNCH equi("redoxFeS(ppt)")  equi("redoxPyrite")
	  end
	END
-------------------------------------------------------
Beginning of initial exchange-composition calculations.
-------------------------------------------------------

Exchange 1.	

X                1.600e+01 mol

	                               Equiv-    Equivalent      Log 
	Species             Moles      alents      Fraction     Gamma

	CaX2              5.136e+00   1.027e+01   6.421e-01     0.000
	MgX2              2.793e+00   5.586e+00   3.491e-01     0.000
	NaX               7.092e-02   7.092e-02   4.433e-03     0.000
	AmmH4X            4.180e-02   4.180e-02   2.612e-03     0.000
	KX                2.760e-02   2.760e-02   1.725e-03     0.000
	HX                7.524e-04   7.524e-04   4.703e-05    -0.016

------------------------------------------------------
Beginning of initial surface-composition calculations.
------------------------------------------------------

Surface 1.	

Diffuse Double Layer Surface-Complexation Model

H             
	  1.144e-09  Surface + diffuse layer charge, eq
	 -5.139e-01  Surface charge, eq
	 -1.814e-02  sigma, C/m²
	 -1.120e-01  psi, V
	  4.360e+00  -F*psi/RT
	  7.824e+01  exp(-F*psi/RT)
	  3.417e+04  specific area, m²/g
	  2.734e+06  m² for   8.000e+01 g

	Water in diffuse layer: 2.734e+01 kg, 94.2% of total DDL-water.

	Total moles in diffuse layer (excluding water), Donnan calculation.
	Donnan Layer potential, psi_DL = -4.521e-02 V.
	Boltzmann factor, exp(-psi_DL * F / RT) = 5.811e+00 (= c_DL / c_free if z is +1).

	Element       	     Moles
	Alanine       	  4.2219e-05
	Amm           	  6.0117e-03
	C             	  8.5044e-05
	Ca            	  1.6867e-01
	Cl            	  6.2575e-04
	Cysteine      	  4.2994e-05
	Ferric        	  4.4787e-03
	Glutamine     	  4.2128e-05
	Glycine       	  2.4508e-04
	H             	  3.3920e-02
	K             	  4.4476e-03
	Methane       	  2.7338e-05
	Mg            	  7.2787e-02
	Na            	  1.8108e-02
	O             	  9.9991e-03
	Ozero         	  1.3973e-02
	P             	  2.3987e-05
	Sulfate       	  7.3458e-06
	Sulfide       	  1.5674e-06
	Threonine     	  4.2127e-05
	Tyrosine      	  4.2127e-05

H_a           
	  3.837e-02  moles
	                                   Mole                     Log
	Species               Moles    Fraction    Molality    Molality

	H_a-              3.718e-02       0.969   1.971e-02      -1.705
	H_aCa+            8.730e-04       0.023   4.626e-04      -3.335
	H_aMg+            2.995e-04       0.008   1.587e-04      -3.799
	H_aH              1.267e-05       0.000   6.716e-06      -5.173

H_ab          
	  6.378e-02  moles
	                                   Mole                     Log
	Species               Moles    Fraction    Molality    Molality

	H_ab-2            6.291e-02       0.986   3.334e-02      -1.477
	H_abCa            4.670e-04       0.007   2.475e-04      -3.606
	H_abH-            2.762e-04       0.004   1.464e-04      -3.835
	H_abMg            1.273e-04       0.002   6.745e-05      -4.171
	H_abH2            9.414e-08       0.000   4.989e-08      -7.302

H_ad          
	  6.378e-02  moles
	                                   Mole                     Log
	Species               Moles    Fraction    Molality    Molality

	H_adCa            2.400e-02       0.376   1.272e-02      -1.896
	H_ad-2            1.904e-02       0.298   1.009e-02      -1.996
	H_adH-            1.419e-02       0.223   7.522e-03      -2.124
	H_adMg            6.541e-03       0.103   3.467e-03      -2.460
	H_adH2            4.838e-06       0.000   2.564e-06      -5.591

H_af          
	  6.378e-02  moles
	                                   Mole                     Log
	Species               Moles    Fraction    Molality    Molality

	H_afH-            5.540e-02       0.869   2.936e-02      -1.532
	H_afCa            8.348e-03       0.131   4.424e-03      -2.354
	H_afH2            1.888e-05       0.000   1.001e-05      -5.000
	H_af-2            1.205e-05       0.000   6.385e-06      -5.195
	H_afMg            3.864e-06       0.000   2.048e-06      -5.689

H_ah          
	  6.378e-02  moles
	                                   Mole                     Log
	Species               Moles    Fraction    Molality    Molality

	H_ahH-            6.374e-02       0.999   3.378e-02      -1.471
	H_ahH2            2.172e-05       0.000   1.151e-05      -4.939
	H_ahCa            1.708e-05       0.000   9.052e-06      -5.043
	H_ahMg            4.446e-06       0.000   2.356e-06      -5.628
	H_ah-2            2.896e-09       0.000   1.535e-09      -8.814

H_b           
	  3.837e-02  moles
	                                   Mole                     Log
	Species               Moles    Fraction    Molality    Molality

	H_b-              2.720e-02       0.709   1.441e-02      -1.841
	H_bCa+            8.227e-03       0.214   4.360e-03      -2.361
	H_bMg+            2.823e-03       0.074   1.496e-03      -2.825
	H_bH              1.194e-04       0.003   6.329e-05      -4.199

H_bc          
	  6.378e-02  moles
	                                   Mole                     Log
	Species               Moles    Fraction    Molality    Molality

	H_bcCa            3.020e-02       0.474   1.601e-02      -1.796
	H_bc-2            2.395e-02       0.376   1.269e-02      -1.896
	H_bcMg            8.231e-03       0.129   4.362e-03      -2.360
	H_bcH-            1.386e-03       0.022   7.348e-04      -3.134
	H_bcH2            6.088e-06       0.000   3.226e-06      -5.491

H_be          
	  6.378e-02  moles
	                                   Mole                     Log
	Species               Moles    Fraction    Molality    Molality

	H_beH-            6.230e-02       0.977   3.301e-02      -1.481
	H_be-2            9.374e-04       0.015   4.968e-04      -3.304
	H_beH2            2.735e-04       0.004   1.450e-04      -3.839
	H_beCa            2.151e-04       0.003   1.140e-04      -3.943
	H_beMg            5.598e-05       0.001   2.966e-05      -4.528

H_bg          
	  6.378e-05  moles
	                                   Mole                     Log
	Species               Moles    Fraction    Molality    Molality

	H_bgH-            6.323e-05       0.991   3.351e-05      -4.475
	H_bgH2            2.776e-07       0.004   1.471e-07      -6.832
	H_bgCa            2.183e-07       0.003   1.157e-07      -6.937
	H_bgMg            5.681e-08       0.001   3.011e-08      -7.521
	H_bg-2            1.988e-10       0.000   1.053e-10      -9.977

H_c           
	  3.837e-02  moles
	                                   Mole                     Log
	Species               Moles    Fraction    Molality    Molality

	H_cCa+            2.386e-02       0.622   1.264e-02      -1.898
	H_cMg+            8.185e-03       0.213   4.337e-03      -2.363
	H_c-              5.983e-03       0.156   3.171e-03      -2.499
	H_cH              3.463e-04       0.009   1.835e-04      -3.736

H_cd          
	  6.378e-05  moles
	                                   Mole                     Log
	Species               Moles    Fraction    Molality    Molality

	H_cdCa            4.979e-05       0.781   2.639e-05      -4.579
	H_cdMg            1.357e-05       0.213   7.192e-06      -5.143
	H_cd-2            2.326e-07       0.004   1.232e-07      -6.909
	H_cdH-            1.734e-07       0.003   9.189e-08      -7.037
	H_cdH2            1.004e-08       0.000   5.319e-09      -8.274

H_cf          
	  6.378e-02  moles
	                                   Mole                     Log
	Species               Moles    Fraction    Molality    Molality

	H_cfH-            5.718e-02       0.896   3.030e-02      -1.519
	H_cfH2            3.309e-03       0.052   1.754e-03      -2.756
	H_cfCa            2.602e-03       0.041   1.379e-03      -2.860
	H_cfMg            6.773e-04       0.011   3.589e-04      -3.445
	H_cf-2            1.244e-05       0.000   6.591e-06      -5.181

H_ch          
	  6.378e-02  moles
	                                   Mole                     Log
	Species               Moles    Fraction    Molality    Molality

	H_chH-            5.719e-02       0.897   3.031e-02      -1.518
	H_chH2            3.310e-03       0.052   1.754e-03      -2.756
	H_chCa            2.603e-03       0.041   1.379e-03      -2.860
	H_chMg            6.774e-04       0.011   3.590e-04      -3.445
	H_ch-2            2.599e-09       0.000   1.377e-09      -8.861

H_d           
	  3.837e-02  moles
	                                   Mole                     Log
	Species               Moles    Fraction    Molality    Molality

	H_dCa+            2.786e-02       0.726   1.477e-02      -1.831
	H_dMg+            9.560e-03       0.249   5.066e-03      -2.295
	H_d-              5.425e-04       0.014   2.875e-04      -3.541
	H_dH              4.045e-04       0.011   2.144e-04      -3.669

H_de          
	  6.378e-05  moles
	                                   Mole                     Log
	Species               Moles    Fraction    Molality    Molality

	H_deH-            2.552e-05       0.400   1.352e-05      -4.869
	H_deH2            1.903e-05       0.298   1.008e-05      -4.996
	H_deCa            1.496e-05       0.235   7.928e-06      -5.101
	H_deMg            3.894e-06       0.061   2.063e-06      -5.685
	H_de-2            3.840e-07       0.006   2.035e-07      -6.691

H_dg          
	  6.378e-05  moles
	                                   Mole                     Log
	Species               Moles    Fraction    Molality    Molality

	H_dgH-            2.567e-05       0.402   1.360e-05      -4.866
	H_dgH2            1.914e-05       0.300   1.014e-05      -4.994
	H_dgCa            1.505e-05       0.236   7.976e-06      -5.098
	H_dgMg            3.917e-06       0.061   2.076e-06      -5.683
	H_dg-2            8.071e-11       0.000   4.277e-11     -10.369

H_e           
	  1.919e-02  moles
	                                   Mole                     Log
	Species               Moles    Fraction    Molality    Molality

	H_eH              1.863e-02       0.971   9.875e-03      -2.005
	H_e-              2.804e-04       0.015   1.486e-04      -3.828
	H_eCa+            2.082e-04       0.011   1.103e-04      -3.957
	H_eMg+            6.666e-05       0.003   3.533e-05      -4.452

H_f           
	  1.919e-02  moles
	                                   Mole                     Log
	Species               Moles    Fraction    Molality    Molality

	H_fH              1.891e-02       0.985   1.002e-02      -1.999
	H_fCa+            2.112e-04       0.011   1.119e-04      -3.951
	H_fMg+            6.763e-05       0.004   3.584e-05      -4.446
	H_f-              4.112e-06       0.000   2.179e-06      -5.662

H_g           
	  1.919e-02  moles
	                                   Mole                     Log
	Species               Moles    Fraction    Molality    Molality

	H_gH              1.891e-02       0.985   1.002e-02      -1.999
	H_gCa+            2.113e-04       0.011   1.120e-04      -3.951
	H_gMg+            6.765e-05       0.004   3.585e-05      -4.446
	H_g-              5.945e-08       0.000   3.151e-08      -7.502

H_h           
	  1.919e-02  moles
	                                   Mole                     Log
	Species               Moles    Fraction    Molality    Molality

	H_hH              1.891e-02       0.985   1.002e-02      -1.999
	H_hCa+            2.113e-04       0.011   1.120e-04      -3.951
	H_hMg+            6.765e-05       0.004   3.585e-05      -4.446
	H_h-              8.594e-10       0.000   4.554e-10      -9.342

Hfo           
	 -9.038e-14  Surface + diffuse layer charge, eq
	 -7.866e-06  Surface charge, eq
	 -4.518e-06  sigma, C/m²
	 -5.587e-05  psi, V
	  2.175e-03  -F*psi/RT
	  1.002e+00  exp(-F*psi/RT)
	  6.000e+02  specific area, m²/g
	  1.680e+05  m² for   2.800e+02 g

	Water in diffuse layer: 1.680e+00 kg,  5.8% of total DDL-water.

	Total moles in diffuse layer (excluding water), Donnan calculation.
	Donnan Layer potential, psi_DL = -4.796e-05 V.
	Boltzmann factor, exp(-psi_DL * F / RT) = 1.002e+00 (= c_DL / c_free if z is +1).

	Element       	     Moles
	Alanine       	  8.7041e-05
	Amm           	  6.3963e-05
	C             	  1.5098e-05
	Ca            	  3.0861e-04
	Cl            	  2.2304e-04
	Cysteine      	  8.7041e-05
	Ferric        	  8.4079e-05
	Glutamine     	  8.7041e-05
	Glycine       	  8.7203e-05
	H             	  5.0128e-04
	K             	  4.7131e-05
	Methane       	  1.6801e-06
	Mg            	  1.3322e-04
	Na            	  1.9189e-04
	O             	  3.1561e-04
	Ozero         	  8.5873e-04
	P             	  8.3800e-06
	Sulfate       	  6.6964e-06
	Sulfide       	  1.6785e-07
	Threonine     	  8.7041e-05
	Tyrosine      	  8.7041e-05

Hfo_s         
	  5.000e-06  moles
	                                   Mole                     Log
	Species               Moles    Fraction    Molality    Molality

	Hfo_sOHCa+2       4.104e-06       0.821   2.175e-06      -5.663
	Hfo_sOH2+         6.131e-07       0.123   3.249e-07      -6.488
	Hfo_sOH           2.802e-07       0.056   1.485e-07      -6.828
	Hfo_sO-           2.934e-09       0.001   1.555e-09      -8.808

Hfo_w         
	  2.000e-04  moles
	                                   Mole                     Log
	Species               Moles    Fraction    Molality    Molality

	Hfo_wOH2+         7.692e-05       0.385   4.076e-05      -4.390
	Hfo_wHPO4-        6.795e-05       0.340   3.601e-05      -4.444
	Hfo_wOH           3.516e-05       0.176   1.863e-05      -4.730
	Hfo_wPO4-2        1.295e-05       0.065   6.861e-06      -5.164
	Hfo_wH2PO4        6.056e-06       0.030   3.209e-06      -5.494
	Hfo_wOMg+         5.334e-07       0.003   2.827e-07      -6.549
	Hfo_wO-           3.681e-07       0.002   1.951e-07      -6.710
	Hfo_wOCa+         6.945e-08       0.000   3.680e-08      -7.434
	Hfo_wSulfateO4-   7.769e-10       0.000   4.117e-10      -9.385
	Hfo_wOHSulfateO4-2   7.085e-10       0.000   3.755e-10      -9.425

-----------------------------------------
Beginning of batch-reaction calculations.
-----------------------------------------

Reaction step 1.

WARNING: Zero divide in BASIC line
 90  rate = get(1)*parm(4)-get(2)-get(3)-get(3)+get(11)*get(11)/(get(11)+get(12)+get(13))+get(12)*get(12)/(get(11)+get(12)+get(13))+get(13)*get(13)/(get(11)+get(12)+get(13)).
Value set to zero.
WARNING: Zero divide in BASIC line
 90  rate = get(1)*parm(4)-get(2)-get(3)-get(3)+get(11)*get(11)/(get(11)+get(12)+get(13))+get(12)*get(12)/(get(11)+get(12)+get(13))+get(13)*get(13)/(get(11)+get(12)+get(13)).
Value set to zero.
WARNING: Zero divide in BASIC line
 90  rate = get(1)*parm(4)-get(2)-get(3)-get(3)+get(11)*get(11)/(get(11)+get(12)+get(13))+get(12)*get(12)/(get(11)+get(12)+get(13))+get(13)*get(13)/(get(11)+get(12)+get(13)).
Value set to zero.
WARNING: Zero divide in BASIC line
 20  rate = parm(1)* mDOM+parm(2)* get(2)-get(11)*2.44*get(11)/(get(11)+get(12)+get(13))-get(12)*10*get(12)/(get(11)+get(12)+get(13))-get(13)*41.48*get(13)/(get(11)+get(12)+get(13)).
Value set to zero.
WARNING: Zero divide in BASIC line
 20  rate = parm(1)* mDOM+parm(2)* get(2)-get(11)*2.44*get(11)/(get(11)+get(12)+get(13))-get(12)*10*get(12)/(get(11)+get(12)+get(13))-get(13)*41.48*get(13)/(get(11)+get(12)+get(13)).
Value set to zero.
WARNING: Zero divide in BASIC line
 20  rate = parm(1)* mDOM+parm(2)* get(2)-get(11)*2.44*get(11)/(get(11)+get(12)+get(13))-get(12)*10*get(12)/(get(11)+get(12)+get(13))-get(13)*41.48*get(13)/(get(11)+get(12)+get(13)).
Value set to zero.
Using solution 1.	
Using exchange 1.	Exchange assemblage after simulation 3.
Using surface 1.	
Using pure phase assemblage 1.	
Using gas phase 1.	fixed volume gas phase
Using kinetics 1.	Decomposition  

Kinetics 1.	Decomposition  

	Time step: 1 seconds  (Incremented time: 1 seconds)

	Rate name       Delta Moles Total Moles   Reactant        Coefficient

	BA                1.084e-01   6.284e-01   CH2O                      0
	OAC               6.683e-02   6.783e-02   CH2O                      0
	Aero              7.626e-04   1.001e+00   CH2O                      0
	                                          HCO3                  -1.44
	                                          Ozero2                 1.44
	SulR              1.305e-06   1.000e+00   CH2O                      0
	                                          HCO3                     -9
	                                          HSulfide-              -4.5
	                                          SulfateO4-2             4.5
	Meth             -0.000e+00   1.000e+00   CH2O                      0
	                                          HCO3                  20.24
	                                          MethaneH4            -20.24
	POM              -1.441e-01   4.566e+00   CH2O                      0
	MOM               7.433e-02   1.597e+01   CH2O                      0
	DOM              -2.806e-01   1.994e-01   CH2O                      0
	QOM              -8.512e-03   1.758e+00   CH2O                      0
	EP                5.245e-04   5.252e-02   CH2O                      0
	EM                5.245e-04   5.252e-02   CH2O                      0
	respiration       1.938e-01   1.938e-01   CH2O                      0
	Tot              -1.940e-01   2.329e+01   CH2O                      0
	Salt              9.851e-04   1.985e-03   CH2O                      0
	                                          Ca+2                     -2
	                                          Cl-                     -20
	                                          HCO3                     -3
	                                          K+                       -1
	                                          Mg+2                     -4
	                                          Na+                     -25
	                                          Nitrate                  -5
	                                          Sulfate                  -5
	Caero             1.861e-03   1.861e-03   CH2O                      0
	Csulr             1.305e-05   1.305e-05   CH2O                      0
	Cmeth            -0.000e+00   0.000e+00   CH2O                      0

-----------------------------------Gas phase-----------------------------------

Total pressure:  0.07      atmospheres 
    Gas volume:   9.00e-01 liters
  Molar volume:   3.72e+02 liters/mole

                                                        Moles in gas
                                            ----------------------------------
Component                log P           P     Initial       Final       Delta

redoxCH4(g)              -3.41   3.893e-04   0.000e+00   1.432e-05   1.432e-05
redoxCO2(g)              -2.63   2.325e-03   1.162e-05   8.554e-05   7.391e-05
redoxO2(g)               -1.20   6.310e-02   1.067e-02   2.321e-03  -8.347e-03

-------------------------------Phase assemblage--------------------------------

                                                      Moles in assemblage
Phase               SI  log IAP  log K(T, P)   Initial       Final       Delta

Hydroxyapatite    0.00    -3.42     -3.42    1.000e-03   5.455e-04  -4.545e-04
redoxCalcite     -2.08   -10.56     -8.48    1.000e-03           0  -1.000e-03
redoxFe(OH)3(a)   -0.00     4.89      4.89    2.000e+00   2.005e+00   4.654e-03
redoxFeS(ppt)    -2.17    -6.08     -3.92    1.000e-03           0  -1.000e-03
redoxO2(g)       -1.20    -4.09     -2.89    1.000e+00   1.013e+00   1.265e-02
redoxPyrite       0.00   -18.48    -18.48    1.000e-03   1.396e-03   3.962e-04

------------------------------Surface composition------------------------------

Diffuse Double Layer Surface-Complexation Model

H             
	  2.527e-09  Surface + diffuse layer charge, eq
	 -5.827e-01  Surface charge, eq
	 -2.057e-02  sigma, C/m²
	 -8.277e-02  psi, V
	  3.222e+00  -F*psi/RT
	  2.507e+01  exp(-F*psi/RT)
	  3.417e+04  specific area, m²/g
	  2.734e+06  m² for   8.000e+01 g

	Water in diffuse layer: 2.734e+01 kg, 94.2% of total DDL-water.

	Total moles in diffuse layer (excluding water), Donnan calculation.
	Donnan Layer potential, psi_DL = -2.567e-02 V.
	Boltzmann factor, exp(-psi_DL * F / RT) = 2.716e+00 (= c_DL / c_free if z is +1).

	Element       	     Moles
	Alanine       	  1.1640e-04
	Amm           	  6.2809e-03
	C             	  4.1712e-03
	Ca            	  2.0205e-01
	Cl            	  1.5374e-02
	Cysteine      	  1.1740e-04
	Ferric        	  3.3804e-06
	Ferrous       	  1.5848e-05
	Glutamine     	  1.1628e-04
	Glycine       	  3.1822e-04
	H             	  8.9944e-02
	K             	  4.7768e-03
	Methane       	  1.4671e-05
	Mg            	  8.7026e-02
	Na            	  2.3918e-02
	Nitrate       	  3.6404e-03
	O             	  3.8437e-02
	Ozero         	  4.4144e-03
	P             	  1.0066e-03
	Sulfate       	  3.2821e-03
	Sulfide       	  1.8406e-04
	Threonine     	  1.1628e-04
	Tyrosine      	  1.1628e-04

H_a           
	  3.837e-02  moles
	                                   Mole                     Log
	Species               Moles    Fraction    Molality    Molality

	H_a-              3.779e-02       0.985   2.003e-02      -1.698
	H_aCa+            4.277e-04       0.011   2.267e-04      -3.644
	H_aMg+            1.467e-04       0.004   7.775e-05      -4.109
	H_aH              7.696e-06       0.000   4.080e-06      -5.389

H_ab          
	  6.378e-02  moles
	                                   Mole                     Log
	Species               Moles    Fraction    Molality    Molality

	H_ab-2            6.333e-02       0.993   3.357e-02      -1.474
	H_abCa            2.267e-04       0.004   1.202e-04      -3.920
	H_abH-            1.662e-04       0.003   8.808e-05      -4.055
	H_abMg            6.174e-05       0.001   3.273e-05      -4.485
	H_abH2            3.384e-08       0.000   1.794e-08      -7.746

H_ad          
	  6.378e-02  moles
	                                   Mole                     Log
	Species               Moles    Fraction    Molality    Molality

	H_ad-2            2.874e-02       0.451   1.524e-02      -1.817
	H_adCa            1.747e-02       0.274   9.262e-03      -2.033
	H_adH-            1.281e-02       0.201   6.789e-03      -2.168
	H_adMg            4.759e-03       0.075   2.523e-03      -2.598
	H_adH2            2.608e-06       0.000   1.383e-06      -5.859

H_af          
	  6.378e-02  moles
	                                   Mole                     Log
	Species               Moles    Fraction    Molality    Molality

	H_afH-            5.683e-02       0.891   3.013e-02      -1.521
	H_afCa            6.910e-03       0.108   3.663e-03      -2.436
	H_af-2            2.069e-05       0.000   1.097e-05      -4.960
	H_afH2            1.158e-05       0.000   6.136e-06      -5.212
	H_afMg            3.196e-06       0.000   1.695e-06      -5.771

H_ah          
	  6.378e-02  moles
	                                   Mole                     Log
	Species               Moles    Fraction    Molality    Molality

	H_ahH-            6.375e-02       1.000   3.379e-02      -1.471
	H_ahCa            1.378e-05       0.000   7.307e-06      -5.136
	H_ahH2            1.298e-05       0.000   6.883e-06      -5.162
	H_ahMg            3.585e-06       0.000   1.901e-06      -5.721
	H_ah-2            4.848e-09       0.000   2.570e-09      -8.590

H_b           
	  3.837e-02  moles
	                                   Mole                     Log
	Species               Moles    Fraction    Molality    Molality

	H_b-              3.202e-02       0.834   1.697e-02      -1.770
	H_bCa+            4.669e-03       0.122   2.475e-03      -2.606
	H_bMg+            1.601e-03       0.042   8.487e-04      -3.071
	H_bH              8.400e-05       0.002   4.453e-05      -4.351

H_bc          
	  6.378e-02  moles
	                                   Mole                     Log
	Species               Moles    Fraction    Molality    Molality

	H_bc-2            3.527e-02       0.553   1.870e-02      -1.728
	H_bcCa            2.144e-02       0.336   1.137e-02      -1.944
	H_bcMg            5.840e-03       0.092   3.096e-03      -2.509
	H_bcH-            1.220e-03       0.019   6.468e-04      -3.189
	H_bcH2            3.201e-06       0.000   1.697e-06      -5.770

H_be          
	  6.378e-02  moles
	                                   Mole                     Log
	Species               Moles    Fraction    Molality    Molality

	H_beH-            6.184e-02       0.970   3.278e-02      -1.484
	H_be-2            1.557e-03       0.024   8.255e-04      -3.083
	H_beCa            1.723e-04       0.003   9.132e-05      -4.039
	H_beH2            1.623e-04       0.003   8.602e-05      -4.065
	H_beMg            4.481e-05       0.001   2.375e-05      -4.624

H_bg          
	  6.378e-05  moles
	                                   Mole                     Log
	Species               Moles    Fraction    Molality    Molality

	H_bgH-            6.339e-05       0.994   3.360e-05      -4.474
	H_bgCa            1.766e-07       0.003   9.360e-08      -7.029
	H_bgH2            1.663e-07       0.003   8.817e-08      -7.055
	H_bgMg            4.593e-08       0.001   2.435e-08      -7.614
	H_bg-2            3.335e-10       0.000   1.768e-10      -9.753

H_c           
	  3.837e-02  moles
	                                   Mole                     Log
	Species               Moles    Fraction    Molality    Molality

	H_cCa+            2.040e-02       0.532   1.081e-02      -1.966
	H_c-              1.061e-02       0.277   5.625e-03      -2.250
	H_cMg+            6.994e-03       0.182   3.708e-03      -2.431
	H_cH              3.670e-04       0.010   1.946e-04      -3.711

H_cd          
	  6.378e-05  moles
	                                   Mole                     Log
	Species               Moles    Fraction    Molality    Molality

	H_cdCa            4.957e-05       0.777   2.628e-05      -4.580
	H_cdMg            1.350e-05       0.212   7.158e-06      -5.145
	H_cd-2            4.802e-07       0.008   2.546e-07      -6.594
	H_cdH-            2.140e-07       0.003   1.134e-07      -6.945
	H_cdH2            7.401e-09       0.000   3.924e-09      -8.406

H_cf          
	  6.378e-02  moles
	                                   Mole                     Log
	Species               Moles    Fraction    Molality    Molality

	H_cfH-            5.899e-02       0.925   3.127e-02      -1.505
	H_cfCa            2.166e-03       0.034   1.148e-03      -2.940
	H_cfH2            2.040e-03       0.032   1.082e-03      -2.966
	H_cfMg            5.634e-04       0.009   2.987e-04      -3.525
	H_cf-2            2.147e-05       0.000   1.138e-05      -4.944

H_ch          
	  6.378e-02  moles
	                                   Mole                     Log
	Species               Moles    Fraction    Molality    Molality

	H_chH-            5.901e-02       0.925   3.128e-02      -1.505
	H_chCa            2.167e-03       0.034   1.149e-03      -2.940
	H_chH2            2.041e-03       0.032   1.082e-03      -2.966
	H_chMg            5.636e-04       0.009   2.988e-04      -3.525
	H_ch-2            4.487e-09       0.000   2.379e-09      -8.624

H_d           
	  3.837e-02  moles
	                                   Mole                     Log
	Species               Moles    Fraction    Molality    Molality

	H_dCa+            2.738e-02       0.714   1.452e-02      -1.838
	H_dMg+            9.390e-03       0.245   4.978e-03      -2.303
	H_d-              1.106e-03       0.029   5.862e-04      -3.232
	H_dH              4.927e-04       0.013   2.612e-04      -3.583

H_de          
	  6.378e-05  moles
	                                   Mole                     Log
	Species               Moles    Fraction    Molality    Molality

	H_deH-            3.086e-05       0.484   1.636e-05      -4.786
	H_deCa            1.460e-05       0.229   7.738e-06      -5.111
	H_deH2            1.375e-05       0.216   7.289e-06      -5.137
	H_deMg            3.797e-06       0.060   2.013e-06      -5.696
	H_de-2            7.771e-07       0.012   4.119e-07      -6.385

H_dg          
	  6.378e-05  moles
	                                   Mole                     Log
	Species               Moles    Fraction    Molality    Molality

	H_dgH-            3.124e-05       0.490   1.656e-05      -4.781
	H_dgCa            1.478e-05       0.232   7.834e-06      -5.106
	H_dgH2            1.392e-05       0.218   7.379e-06      -5.132
	H_dgMg            3.844e-06       0.060   2.038e-06      -5.691
	H_dg-2            1.644e-10       0.000   8.713e-11     -10.060

H_e           
	  1.919e-02  moles
	                                   Mole                     Log
	Species               Moles    Fraction    Molality    Molality

	H_eH              1.850e-02       0.964   9.809e-03      -2.008
	H_e-              4.659e-04       0.024   2.470e-04      -3.607
	H_eCa+            1.668e-04       0.009   8.841e-05      -4.053
	H_eMg+            5.337e-05       0.003   2.829e-05      -4.548

H_f           
	  1.919e-02  moles
	                                   Mole                     Log
	Species               Moles    Fraction    Molality    Molality

	H_fH              1.896e-02       0.988   1.005e-02      -1.998
	H_fCa+            1.709e-04       0.009   9.058e-05      -4.043
	H_fMg+            5.468e-05       0.003   2.899e-05      -4.538
	H_f-              6.900e-06       0.000   3.658e-06      -5.437

H_g           
	  1.919e-02  moles
	                                   Mole                     Log
	Species               Moles    Fraction    Molality    Molality

	H_gH              1.896e-02       0.988   1.005e-02      -1.998
	H_gCa+            1.709e-04       0.009   9.061e-05      -4.043
	H_gMg+            5.470e-05       0.003   2.900e-05      -4.538
	H_g-              9.977e-08       0.000   5.289e-08      -7.277

H_h           
	  1.919e-02  moles
	                                   Mole                     Log
	Species               Moles    Fraction    Molality    Molality

	H_hH              1.896e-02       0.988   1.005e-02      -1.998
	H_hCa+            1.709e-04       0.009   9.061e-05      -4.043
	H_hMg+            5.470e-05       0.003   2.900e-05      -4.538
	H_h-              1.442e-09       0.000   7.645e-10      -9.117

Hfo           
	  5.748e-13  Surface + diffuse layer charge, eq
	 -1.420e-04  Surface charge, eq
	 -8.157e-05  sigma, C/m²
	 -4.897e-04  psi, V
	  1.906e-02  -F*psi/RT
	  1.019e+00  exp(-F*psi/RT)
	  6.000e+02  specific area, m²/g
	  1.680e+05  m² for   2.800e+02 g

	Water in diffuse layer: 1.680e+00 kg,  5.8% of total DDL-water.

	Total moles in diffuse layer (excluding water), Donnan calculation.
	Donnan Layer potential, psi_DL = -2.037e-04 V.
	Boltzmann factor, exp(-psi_DL * F / RT) = 1.008e+00 (= c_DL / c_free if z is +1).

	Element       	     Moles
	Alanine       	  5.1846e-05
	Amm           	  1.4396e-04
	C             	  4.4021e-04
	Ca            	  1.7851e-03
	Cl            	  2.5457e-03
	Cysteine      	  5.1742e-05
	Ferric        	  9.9779e-08
	Ferrous       	  1.4715e-07
	Glutamine     	  5.1858e-05
	Glycine       	  5.2629e-05
	H             	  4.8805e-03
	K             	  1.0916e-04
	Methane       	  9.0165e-07
	Mg            	  7.7511e-04
	Na            	  5.4631e-04
	Nitrate       	  6.0277e-04
	O             	  6.6756e-03
	Ozero         	  2.7130e-04
	P             	  1.4395e-04
	Sulfate       	  7.7583e-04
	Sulfide       	  1.4748e-05
	Threonine     	  5.1858e-05
	Tyrosine      	  5.1859e-05

Hfo_s         
	  5.000e-06  moles
	                                   Mole                     Log
	Species               Moles    Fraction    Molality    Molality

	Hfo_sOHCa+2       4.660e-06       0.932   2.470e-06      -5.607
	Hfo_sOH2+         2.719e-07       0.054   1.441e-07      -6.841
	Hfo_sOH           6.550e-08       0.013   3.472e-08      -7.459
	Hfo_sOFerrous+    2.037e-09       0.000   1.080e-09      -8.967
	Hfo_sO-           3.616e-10       0.000   1.917e-10      -9.717

Hfo_w         
	  2.000e-04  moles
	                                   Mole                     Log
	Species               Moles    Fraction    Molality    Molality

	Hfo_wHPO4-        1.406e-04       0.703   7.454e-05      -4.128
	Hfo_wH2PO4        2.378e-05       0.119   1.260e-05      -4.899
	Hfo_wOH2+         1.713e-05       0.086   9.081e-06      -5.042
	Hfo_wPO4-2        1.412e-05       0.071   7.487e-06      -5.126
	Hfo_wOH           4.127e-06       0.021   2.188e-06      -5.660
	Hfo_wOMg+         1.603e-07       0.001   8.497e-08      -7.071
	Hfo_wO-           2.278e-08       0.000   1.208e-08      -7.918
	Hfo_wOCa+         2.088e-08       0.000   1.107e-08      -7.956
	Hfo_wSulfateO4-   1.508e-08       0.000   7.993e-09      -8.097
	Hfo_wOHSulfateO4-2   7.248e-09       0.000   3.842e-09      -8.415
	Hfo_wOFerrous+    1.198e-09       0.000   6.351e-10      -9.197
	Hfo_wOFerrousOH   1.515e-11       0.000   8.030e-12     -11.095

-----------------------------Exchange composition------------------------------

X                1.600e+01 mol

	                               Equiv-    Equivalent      Log 
	Species             Moles      alents      Fraction     Gamma

	CaX2              5.131e+00   1.026e+01   6.414e-01    -0.000
	MgX2              2.789e+00   5.577e+00   3.486e-01    -0.000
	NaX               8.899e-02   8.899e-02   5.562e-03    -0.000
	AmmH4X            4.136e-02   4.136e-02   2.585e-03    -0.000
	KX                2.812e-02   2.812e-02   1.758e-03    -0.000
	HX                6.688e-04   6.688e-04   4.180e-05    -0.031
	FerrousX2         5.876e-04   1.175e-03   7.346e-05    -0.130

-----------------------------Solution composition------------------------------

	Elements           Molality       Moles

	Alanine           3.135e-05   5.914e-05
	Amm               8.502e-05   1.604e-04
	C                 2.634e-04   4.970e-04
	Ca                1.047e-03   1.974e-03
	Cl                1.527e-03   2.881e-03
	Cysteine          3.129e-05   5.902e-05
	Ferric            5.909e-08   1.115e-07
	Ferrous           8.634e-08   1.629e-07
	Glutamine         3.136e-05   5.916e-05
	Glycine           3.158e-05   5.956e-05
	K                 6.446e-05   1.216e-04
	Methane           5.367e-07   1.012e-06
	Mg                4.545e-04   8.574e-04
	Na                3.226e-04   6.086e-04
	Nitrate           3.616e-04   6.822e-04
	Ozero             1.615e-04   3.046e-04
	P                 8.643e-05   1.630e-04
	Sulfate           4.681e-04   8.831e-04
	Sulfide           8.805e-06   1.661e-05
	Threonine         3.136e-05   5.916e-05
	Tyrosine          3.136e-05   5.916e-05

----------------------------Description of solution----------------------------

                                       pH  =   6.680      Charge balance
                                       pe  =  -6.778      Adjusted to redox equilibrium
      Specific Conductance (µS/cm,  25°C)  = 377
                        Activity of water  =   1.000
                 Ionic strength (mol/kgw)  =   5.321e-03
                       Mass of water (kg)  =   1.886e+00
                 Total alkalinity (eq/kg)  =   4.063e-04
                       Total CO2 (mol/kg)  =   2.634e-04
                         Temperature (°C)  =  25.00
                           Pressure (atm)  =  0.07
                  Electrical balance (eq)  =  -8.060e-10
 Percent error, 100*(Cat-|An|)/(Cat+|An|)  =  -0.00
                               Iterations  = 314
                                  Total H  = 2.094153e+02
                                  Total O  = 1.047125e+02

----------------------------Distribution of species----------------------------

                                               Log       Log       Log    mole V
   Species          Molality    Activity  Molality  Activity     Gamma   cm³/mol

   H+              2.241e-07   2.088e-07    -6.650    -6.680    -0.031      0.00
   OH-             5.187e-08   4.793e-08    -7.285    -7.319    -0.034     (0)  
   H2O             5.551e+01   9.999e-01     1.744    -0.000     0.000     18.07
Alanine       3.135e-05
   Alanine-2       3.135e-05   2.295e-05    -4.504    -4.639    -0.135     (0)  
   H2(Alanine)     7.410e-09   7.419e-09    -8.130    -8.130     0.001     (0)  
   H(Alanine)-     1.160e-09   1.073e-09    -8.936    -8.969    -0.034     (0)  
Amm           8.502e-05
   AmmH4+          8.449e-05   7.793e-05    -4.073    -4.108    -0.035     (0)  
   AmmH4SulfateO4-   3.211e-07   2.970e-07    -6.493    -6.527    -0.034     (0)  
   AmmH3           2.124e-07   2.126e-07    -6.673    -6.672     0.001     (0)  
C(4)          2.634e-04
   HCO3-           1.819e-04   1.686e-04    -3.740    -3.773    -0.033     (0)  
   CO2             7.907e-05   7.916e-05    -4.102    -4.101     0.001     (0)  
   CaHCO3+         1.703e-06   1.578e-06    -5.769    -5.802    -0.033     (0)  
   MgHCO3+         6.755e-07   6.249e-07    -6.170    -6.204    -0.034     (0)  
   CO3-2           5.128e-08   3.786e-08    -7.290    -7.422    -0.132     (0)  
   CaCO3           4.661e-08   4.667e-08    -7.332    -7.331     0.001     (0)  
   NaHCO3          2.823e-08   2.827e-08    -7.549    -7.549     0.001     (0)  
   MgCO3           1.143e-08   1.144e-08    -7.942    -7.941     0.001     (0)  
   FerrousHCO3+    1.035e-09   9.576e-10    -8.985    -9.019    -0.034     (0)  
   NaCO3-          2.272e-10   2.102e-10    -9.644    -9.677    -0.034     (0)  
   FerrousCO3      5.152e-11   5.158e-11   -10.288   -10.288     0.001     (0)  
Ca            1.047e-03
   Ca+2            9.945e-04   7.338e-04    -3.002    -3.134    -0.132     (0)  
   CaSulfateO4     4.327e-05   4.332e-05    -4.364    -4.363     0.001     (0)  
   CaHPO4          6.037e-06   6.045e-06    -5.219    -5.219     0.001     (0)  
   CaHCO3+         1.703e-06   1.578e-06    -5.769    -5.802    -0.033     (0)  
   CaH2PO4+        1.026e-06   9.488e-07    -5.989    -6.023    -0.034     (0)  
   CaPO4-          7.403e-08   6.848e-08    -7.131    -7.164    -0.034     (0)  
   CaCO3           4.661e-08   4.667e-08    -7.332    -7.331     0.001     (0)  
   CaOH+           6.304e-10   5.831e-10    -9.200    -9.234    -0.034     (0)  
   CaHSulfateO4+   5.730e-11   5.300e-11   -10.242   -10.276    -0.034     (0)  
Cl            1.527e-03
   Cl-             1.527e-03   1.412e-03    -2.816    -2.850    -0.034     (0)  
   FerrousCl+      1.197e-10   1.107e-10    -9.922    -9.956    -0.034     (0)  
   FerricCl+2      4.128e-17   3.022e-17   -16.384   -16.520    -0.135     (0)  
   FerricCl2+      2.060e-19   1.905e-19   -18.686   -18.720    -0.034     (0)  
   FerricCl3       2.686e-23   2.689e-23   -22.571   -22.570     0.001     (0)  
Cysteine      3.129e-05
   Cysteine-2      3.123e-05   2.286e-05    -4.505    -4.641    -0.135     (0)  
   H2(Cysteine)    6.001e-08   6.008e-08    -7.222    -7.221     0.001     (0)  
   H(Cysteine)-    2.647e-10   2.449e-10    -9.577    -9.611    -0.034     (0)  
Ferric        5.909e-08
   Ferric(OH)2+    3.756e-08   3.474e-08    -7.425    -7.459    -0.034     (0)  
   Ferric(OH)3     2.140e-08   2.143e-08    -7.670    -7.669     0.001     (0)  
   Ferric(OH)4-    1.012e-10   9.357e-11    -9.995   -10.029    -0.034     (0)  
   FerricOH+2      2.993e-11   2.191e-11   -10.524   -10.659    -0.135     (0)  
   FerricH2PO4+2   1.317e-14   9.643e-15   -13.880   -14.016    -0.135     (0)  
   FerricHPO4+     3.099e-15   2.867e-15   -14.509   -14.543    -0.034     (0)  
   FerricSulfateO4+   2.486e-15   2.300e-15   -14.604   -14.638    -0.034     (0)  
   Ferric+3        1.337e-15   7.089e-16   -14.874   -15.149    -0.275     (0)  
   FerricCl+2      4.128e-17   3.022e-17   -16.384   -16.520    -0.135     (0)  
   Ferric(SulfateO4)2-   1.609e-17   1.489e-17   -16.793   -16.827    -0.034     (0)  
   FerricCl2+      2.060e-19   1.905e-19   -18.686   -18.720    -0.034     (0)  
   Ferric2(OH)2+4   4.500e-20   1.293e-20   -19.347   -19.889    -0.542     (0)  
   FerricHSulfateO4+2   1.757e-21   1.286e-21   -20.755   -20.891    -0.135     (0)  
   FerricCl3       2.686e-23   2.689e-23   -22.571   -22.570     0.001     (0)  
   Ferric3(OH)4+5   6.590e-25   9.382e-26   -24.181   -25.028    -0.847     (0)  
Ferrous       8.634e-08
   Ferrous+2       7.665e-08   5.680e-08    -7.116    -7.246    -0.130     (0)  
   FerrousHPO4     3.393e-09   3.398e-09    -8.469    -8.469     0.001     (0)  
   FerrousSulfateO4   2.985e-09   2.989e-09    -8.525    -8.525     0.001     (0)  
   FerrousH2PO4+   1.555e-09   1.439e-09    -8.808    -8.842    -0.034     (0)  
   FerrousHCO3+    1.035e-09   9.576e-10    -8.985    -9.019    -0.034     (0)  
   Ferrous(HSulfide)2   4.641e-10   4.646e-10    -9.333    -9.333     0.001     (0)  
   FerrousCl+      1.197e-10   1.107e-10    -9.922    -9.956    -0.034     (0)  
   FerrousOH+      9.298e-11   8.600e-11   -10.032   -10.065    -0.034     (0)  
   FerrousCO3      5.152e-11   5.158e-11   -10.288   -10.288     0.001     (0)  
   Ferrous(HSulfide)3-   1.657e-13   1.533e-13   -12.781   -12.815    -0.034     (0)  
   FerrousHSulfateO4+   4.435e-15   4.103e-15   -14.353   -14.387    -0.034     (0)  
Glutamine     3.136e-05
   Glutamine-2     3.136e-05   2.296e-05    -4.504    -4.639    -0.135     (0)  
   H2(Glutamine)   1.349e-09   1.351e-09    -8.870    -8.869     0.001     (0)  
   H(Glutamine)-   7.666e-10   7.091e-10    -9.115    -9.149    -0.034     (0)  
Glycine       3.158e-05
   Glycine-        3.157e-05   2.920e-05    -4.501    -4.535    -0.034     (0)  
   H2(Glycine)+    5.482e-09   5.070e-09    -8.261    -8.295    -0.034     (0)  
   H(Glycine)      1.333e-09   1.334e-09    -8.875    -8.875     0.001     (0)  
H(0)          2.221e-03
   H2              1.111e-03   1.112e-03    -2.954    -2.954     0.001     (0)  
K             6.446e-05
   K+              6.433e-05   5.945e-05    -4.192    -4.226    -0.034     (0)  
   KSulfateO4-     1.336e-07   1.236e-07    -6.874    -6.908    -0.034     (0)  
   KHPO4-          1.883e-09   1.742e-09    -8.725    -8.759    -0.034     (0)  
   KOH             9.857e-13   9.869e-13   -12.006   -12.006     0.001     (0)  
Methane       5.367e-07
   MethaneH4       5.367e-07   5.374e-07    -6.270    -6.270     0.001     (0)  
Mg            4.545e-04
   Mg+2            4.278e-04   3.168e-04    -3.369    -3.499    -0.130     (0)  
   MgSulfateO4     2.194e-05   2.197e-05    -4.659    -4.658     0.001     (0)  
   MgHPO4          3.524e-06   3.528e-06    -5.453    -5.452     0.001     (0)  
   MgHCO3+         6.755e-07   6.249e-07    -6.170    -6.204    -0.034     (0)  
   MgH2PO4+        5.640e-07   5.216e-07    -6.249    -6.283    -0.034     (0)  
   MgPO4-          4.311e-08   3.988e-08    -7.365    -7.399    -0.034     (0)  
   MgCO3           1.143e-08   1.144e-08    -7.942    -7.941     0.001     (0)  
   MgOH+           5.953e-09   5.507e-09    -8.225    -8.259    -0.034     (0)  
Na            3.226e-04
   Na+             3.221e-04   2.982e-04    -3.492    -3.526    -0.034     (0)  
   NaSulfateO4-    4.780e-07   4.421e-07    -6.321    -6.354    -0.034     (0)  
   NaHCO3          2.823e-08   2.827e-08    -7.549    -7.549     0.001     (0)  
   NaHPO4-         9.443e-09   8.735e-09    -8.025    -8.059    -0.034     (0)  
   NaCO3-          2.272e-10   2.102e-10    -9.644    -9.677    -0.034     (0)  
   NaOH            9.420e-12   9.432e-12   -11.026   -11.025     0.001     (0)  
Nitrate       3.616e-04
   NitrateO3-      3.616e-04   3.345e-04    -3.442    -3.476    -0.034     (0)  
O(0)          0.000e+00
   O2              0.000e+00   0.000e+00   -86.473   -86.472     0.001     (0)  
Ozero         1.615e-04
   Ozero2          8.074e-05   8.084e-05    -4.093    -4.092     0.001     (0)  
P             8.643e-05
   H2PO4-          5.460e-05   5.054e-05    -4.263    -4.296    -0.034     (0)  
   HPO4-2          2.054e-05   1.502e-05    -4.687    -4.823    -0.136     (0)  
   CaHPO4          6.037e-06   6.045e-06    -5.219    -5.219     0.001     (0)  
   MgHPO4          3.524e-06   3.528e-06    -5.453    -5.452     0.001     (0)  
   CaH2PO4+        1.026e-06   9.488e-07    -5.989    -6.023    -0.034     (0)  
   MgH2PO4+        5.640e-07   5.216e-07    -6.249    -6.283    -0.034     (0)  
   CaPO4-          7.403e-08   6.848e-08    -7.131    -7.164    -0.034     (0)  
   MgPO4-          4.311e-08   3.988e-08    -7.365    -7.399    -0.034     (0)  
   NaHPO4-         9.443e-09   8.735e-09    -8.025    -8.059    -0.034     (0)  
   FerrousHPO4     3.393e-09   3.398e-09    -8.469    -8.469     0.001     (0)  
   KHPO4-          1.883e-09   1.742e-09    -8.725    -8.759    -0.034     (0)  
   FerrousH2PO4+   1.555e-09   1.439e-09    -8.808    -8.842    -0.034     (0)  
   PO4-3           6.555e-11   3.243e-11   -10.183   -10.489    -0.306     (0)  
   FerricH2PO4+2   1.317e-14   9.643e-15   -13.880   -14.016    -0.135     (0)  
   FerricHPO4+     3.099e-15   2.867e-15   -14.509   -14.543    -0.034     (0)  
Sulfate       4.681e-04
   SulfateO4-2     4.020e-04   2.959e-04    -3.396    -3.529    -0.133     (0)  
   CaSulfateO4     4.327e-05   4.332e-05    -4.364    -4.363     0.001     (0)  
   MgSulfateO4     2.194e-05   2.197e-05    -4.659    -4.658     0.001     (0)  
   NaSulfateO4-    4.780e-07   4.421e-07    -6.321    -6.354    -0.034     (0)  
   AmmH4SulfateO4-   3.211e-07   2.970e-07    -6.493    -6.527    -0.034     (0)  
   KSulfateO4-     1.336e-07   1.236e-07    -6.874    -6.908    -0.034     (0)  
   HSulfateO4-     6.494e-09   6.007e-09    -8.187    -8.221    -0.034     (0)  
   FerrousSulfateO4   2.985e-09   2.989e-09    -8.525    -8.525     0.001     (0)  
   CaHSulfateO4+   5.730e-11   5.300e-11   -10.242   -10.276    -0.034     (0)  
   FerrousHSulfateO4+   4.435e-15   4.103e-15   -14.353   -14.387    -0.034     (0)  
   FerricSulfateO4+   2.486e-15   2.300e-15   -14.604   -14.638    -0.034     (0)  
   Ferric(SulfateO4)2-   1.609e-17   1.489e-17   -16.793   -16.827    -0.034     (0)  
   FerricHSulfateO4+2   1.757e-21   1.286e-21   -20.755   -20.891    -0.135     (0)  
Sulfide       8.805e-06
   H2Sulfide       5.525e-06   5.532e-06    -5.258    -5.257     0.001     (0)  
   HSulfide-       3.279e-06   3.029e-06    -5.484    -5.519    -0.034     (0)  
   Ferrous(HSulfide)2   4.641e-10   4.646e-10    -9.333    -9.333     0.001     (0)  
   Sulfide-2       2.379e-12   1.752e-12   -11.624   -11.756    -0.133     (0)  
   Ferrous(HSulfide)3-   1.657e-13   1.533e-13   -12.781   -12.815    -0.034     (0)  
Threonine     3.136e-05
   Threonine-2     3.136e-05   2.296e-05    -4.504    -4.639    -0.135     (0)  
   H2(Threonine)   1.318e-09   1.320e-09    -8.880    -8.879     0.001     (0)  
   H(Threonine)-   7.321e-10   6.772e-10    -9.135    -9.169    -0.034     (0)  
Tyrosine      3.136e-05
   Tyrosine-2      3.136e-05   2.296e-05    -4.504    -4.639    -0.135     (0)  
   H2(Tyrosine)    1.288e-09   1.290e-09    -8.890    -8.889     0.001     (0)  
   H(Tyrosine)-    8.215e-10   7.599e-10    -9.085    -9.119    -0.034     (0)  

------------------------------Saturation indices-------------------------------

  Phase               SI** log IAP   log K(298 K,   0 atm)

  FixpH            -6.68     -6.68    0.00  H+
  H2(g)             0.20     -2.95   -3.15  H2
  H2O(g)           -1.51     -0.00    1.51  H2O
  Halite           -7.96     -6.38    1.58  NaCl
  Hydroxyapatite    0.00     -3.42   -3.42  Ca5(PO4)3OH
  ORM             813.98    -65.25 -879.23  C5H4O2Amm
  redoxAnhydrite   -2.30     -6.66   -4.36  CaSulfateO4
  redoxAragonite   -2.22    -10.56   -8.34  CaCO3
  redoxCalcite     -2.08    -10.56   -8.48  CaCO3
  redoxCH4(g)      -3.41     -6.27   -2.86  MethaneH4
  redoxCO2(g)      -2.63     -4.10   -1.47  CO2
  redoxDolomite    -4.39    -21.48  -17.09  CaMg(CO3)2
  redoxFe(OH)3(a)  -0.00      4.89    4.89  Ferric(OH)3
  redoxFeS(ppt)    -2.17     -6.08   -3.92  FerrousSulfide
  redoxGoethite     5.89      4.89   -1.00  FerricOOH
  redoxGypsum      -2.08     -6.66   -4.58  CaSulfateO4:2H2O
  redoxH2S(g)      -4.26     -5.26   -1.00  H2Sulfide
  redoxHematite    13.79      9.78   -4.01  Ferric2O3
  redoxJarosite-K  -7.44    -16.65   -9.21  KFerric3(SulfateO4)2(OH)6
  redoxMackinawite  -1.44     -6.08   -4.65  FerrousSulfide
  redoxMelanterite  -8.57    -10.77   -2.21  FerrousSulfateO4:7H2O
  redoxNH3(g)      -8.44     -6.67    1.77  AmmH3
  redoxO2(g)       -1.20     -4.09   -2.89  Ozero2
  redoxPyrite       0.00    -18.48  -18.48  FerrousSulfide2
  redoxSiderite    -3.78    -14.67  -10.89  FerrousCO3
  redoxSulfur     -10.34     -5.45    4.88  Sulfide
  redoxVivianite   -6.72    -42.72  -36.00  Ferrous3(PO4)2:8H2O

**For a gas, SI = log10(fugacity). Fugacity = pressure * phi / 1 atm.
  For ideal gases, phi = 1.

Reaction step 2.

Using solution 1.	
Using exchange 1.	Exchange assemblage after simulation 3.
Using surface 1.	
Using pure phase assemblage 1.	
Using gas phase 1.	fixed volume gas phase
Using kinetics 1.	Decomposition  

Kinetics 1.	Decomposition  

	Time step: 1 seconds  (Incremented time: 2 seconds)

	Rate name       Delta Moles Total Moles   Reactant        Coefficient

	BA                6.284e-02   6.913e-01   CH2O                      0
	OAC               2.343e-02   9.126e-02   CH2O                      0
	Aero              1.728e-03   1.002e+00   CH2O                      0
	                                          HCO3                  -1.44
	                                          Ozero2                 1.44
	SulR              7.661e-06   1.000e+00   CH2O                      0
	                                          HCO3                     -9
	                                          HSulfide-              -4.5
	                                          SulfateO4-2             4.5
	Meth             -0.000e+00   1.000e+00   CH2O                      0
	                                          HCO3                  20.24
	                                          MethaneH4            -20.24
	POM              -1.406e-01   4.425e+00   CH2O                      0
	MOM               7.300e-02   1.605e+01   CH2O                      0
	DOM              -1.296e-01   6.980e-02   CH2O                      0
	QOM              -5.351e-03   1.753e+00   CH2O                      0
	EP                6.113e-04   5.314e-02   CH2O                      0
	EM                6.113e-04   5.314e-02   CH2O                      0
	respiration       1.442e-01   3.380e-01   CH2O                      0
	Tot              -1.444e-01   2.315e+01   CH2O                      0
	Salt              9.753e-04   2.960e-03   CH2O                      0
	                                          Ca+2                     -2
	                                          Cl-                     -20
	                                          HCO3                     -3
	                                          K+                       -1
	                                          Mg+2                     -4
	                                          Na+                     -25
	                                          Nitrate                  -5
	                                          Sulfate                  -5
	Caero             4.216e-03   6.076e-03   CH2O                      0
	Csulr             7.661e-05   8.966e-05   CH2O                      0
	Cmeth            -0.000e+00   0.000e+00   CH2O                      0

-----------------------------------Gas phase-----------------------------------

Total pressure:  0.07      atmospheres 
    Gas volume:   9.00e-01 liters
  Molar volume:   3.58e+02 liters/mole

                                                        Moles in gas
                                            ----------------------------------
Component                log P           P     Initial       Final       Delta

redoxCH4(g)              -3.41   3.894e-04   1.432e-05   1.432e-05   5.025e-09
redoxCO2(g)              -2.32   4.810e-03   8.554e-05   1.769e-04   9.141e-05
redoxO2(g)               -1.20   6.310e-02   2.321e-03   2.321e-03   0.000e+00

-------------------------------Phase assemblage--------------------------------

                                                      Moles in assemblage
Phase               SI  log IAP  log K(T, P)   Initial       Final       Delta

Hydroxyapatite   -0.00    -3.42     -3.42    5.455e-04   5.757e-04   3.019e-05
redoxCalcite     -1.74   -10.22     -8.48    0.000e+00           0   0.000e+00
redoxFe(OH)3(a)    0.00     4.89      4.89    2.005e+00   2.005e+00  -3.508e-08
redoxFeS(ppt)    -2.02    -5.93     -3.92    0.000e+00           0   0.000e+00
redoxO2(g)       -1.20    -4.09     -2.89    1.013e+00   1.010e+00  -2.486e-03
redoxPyrite       0.00   -18.48    -18.48    1.396e-03   1.372e-03  -2.395e-05

------------------------------Surface composition------------------------------

Diffuse Double Layer Surface-Complexation Model

H             
	 -2.797e-09  Surface + diffuse layer charge, eq
	 -6.052e-01  Surface charge, eq
	 -2.136e-02  sigma, C/m²
	 -7.476e-02  psi, V
	  2.910e+00  -F*psi/RT
	  1.836e+01  exp(-F*psi/RT)
	  3.417e+04  specific area, m²/g
	  2.734e+06  m² for   8.000e+01 g

	Water in diffuse layer: 2.734e+01 kg, 94.2% of total DDL-water.

	Total moles in diffuse layer (excluding water), Donnan calculation.
	Donnan Layer potential, psi_DL = -2.087e-02 V.
	Boltzmann factor, exp(-psi_DL * F / RT) = 2.253e+00 (= c_DL / c_free if z is +1).

	Element       	     Moles
	Alanine       	  1.3710e-04
	Amm           	  6.4026e-03
	C             	  8.7508e-03
	Ca            	  2.1824e-01
	Cl            	  3.1165e-02
	Cysteine      	  1.3805e-04
	Ferric        	  3.3878e-06
	Ferrous       	  1.6821e-05
	Glutamine     	  1.3698e-04
	Glycine       	  3.3288e-04
	H             	  1.5091e-01
	K             	  5.0054e-03
	Methane       	  1.4667e-05
	Mg            	  9.4021e-02
	Na            	  2.9465e-02
	Nitrate       	  7.5788e-03
	O             	  7.6858e-02
	Ozero         	  4.4116e-03
	P             	  9.8263e-04
	Sulfate       	  7.0996e-03
	Sulfide       	  2.5663e-04
	Threonine     	  1.3698e-04
	Tyrosine      	  1.3698e-04

H_a           
	  3.837e-02  moles
	                                   Mole                     Log
	Species               Moles    Fraction    Molality    Molality

	H_a-              3.791e-02       0.988   2.010e-02      -1.697
	H_aCa+            3.376e-04       0.009   1.790e-04      -3.747
	H_aMg+            1.159e-04       0.003   6.144e-05      -4.212
	H_aH              6.723e-06       0.000   3.565e-06      -5.448

H_ab          
	  6.378e-02  moles
	                                   Mole                     Log
	Species               Moles    Fraction    Molality    Molality

	H_ab-2            6.341e-02       0.994   3.362e-02      -1.473
	H_abCa            1.786e-04       0.003   9.469e-05      -4.024
	H_abH-            1.449e-04       0.002   7.682e-05      -4.115
	H_abMg            4.868e-05       0.001   2.581e-05      -4.588
	H_abH2            2.569e-08       0.000   1.362e-08      -7.866

H_ad          
	  6.378e-02  moles
	                                   Mole                     Log
	Species               Moles    Fraction    Molality    Molality

	H_ad-2            3.194e-02       0.501   1.694e-02      -1.771
	H_adCa            1.528e-02       0.240   8.101e-03      -2.091
	H_adH-            1.239e-02       0.194   6.572e-03      -2.182
	H_adMg            4.165e-03       0.065   2.209e-03      -2.656
	H_adH2            2.198e-06       0.000   1.166e-06      -5.933

H_af          
	  6.378e-02  moles
	                                   Mole                     Log
	Species               Moles    Fraction    Molality    Molality

	H_afH-            5.743e-02       0.900   3.046e-02      -1.516
	H_afCa            6.309e-03       0.099   3.346e-03      -2.476
	H_af-2            2.401e-05       0.000   1.273e-05      -4.895
	H_afH2            1.019e-05       0.000   5.401e-06      -5.267
	H_afMg            2.921e-06       0.000   1.549e-06      -5.810

H_ah          
	  6.378e-02  moles
	                                   Mole                     Log
	Species               Moles    Fraction    Molality    Molality

	H_ahH-            6.375e-02       1.000   3.381e-02      -1.471
[...]
	Species               Moles    Fraction    Molality    Molality

	H_fH              1.908e-02       0.994   1.029e-02      -1.987
	H_fCa+            6.958e-05       0.004   3.754e-05      -4.426
	H_fMg+            2.419e-05       0.001   1.305e-05      -4.884
	H_f-              1.479e-05       0.001   7.979e-06      -5.098

H_g           
	  1.919e-02  moles
	                                   Mole                     Log
	Species               Moles    Fraction    Molality    Molality

	H_gH              1.910e-02       0.995   1.030e-02      -1.987
	H_gCa+            6.963e-05       0.004   3.756e-05      -4.425
	H_gMg+            2.421e-05       0.001   1.306e-05      -4.884
	H_g-              2.140e-07       0.000   1.154e-07      -6.938

H_h           
	  1.919e-02  moles
	                                   Mole                     Log
	Species               Moles    Fraction    Molality    Molality

	H_hH              1.910e-02       0.995   1.030e-02      -1.987
	H_hCa+            6.963e-05       0.004   3.757e-05      -4.425
	H_hMg+            2.421e-05       0.001   1.306e-05      -4.884
	H_h-              3.093e-09       0.000   1.668e-09      -8.778

Hfo           
	  3.554e-13  Surface + diffuse layer charge, eq
	  1.167e-05  Surface charge, eq
	  6.700e-06  sigma, C/m²
	  8.903e-06  psi, V
	 -3.465e-04  -F*psi/RT
	  9.997e-01  exp(-F*psi/RT)
	  6.000e+02  specific area, m²/g
	  1.680e+05  m² for   2.800e+02 g

	Water in diffuse layer: 1.680e+00 kg,  5.8% of total DDL-water.

	Total moles in diffuse layer (excluding water), Donnan calculation.
	Donnan Layer potential, psi_DL =  8.121e-07 V.
	Boltzmann factor, exp(-psi_DL * F / RT) = 1.000e+00 (= c_DL / c_free if z is +1).

	Element       	     Moles
	Alanine       	  1.5135e-05
	Amm           	  5.4423e-04
	C             	  3.4617e-02
	Ca            	  3.8822e-02
	Cl            	  7.5461e-02
	Cysteine      	  1.5154e-05
	Ferric        	  2.9627e-07
	Ferrous       	  5.0000e-08
	Glutamine     	  1.5132e-05
	Glycine       	  2.5915e-05
	H             	  2.4264e-01
	K             	  1.1403e-03
	Methane       	  8.9221e-07
	Mg            	  1.7864e-02
	Na            	  2.7131e-02
	Nitrate       	  1.8849e-02
	O             	  2.0349e-01
	Ozero         	  2.6492e-04
	P             	  7.9595e-05
	Sulfate       	  1.5197e-02
	Sulfide       	  3.3587e-03
	Threonine     	  1.5132e-05
	Tyrosine      	  1.5132e-05

Hfo_s         
	  5.000e-06  moles
	                                   Mole                     Log
	Species               Moles    Fraction    Molality    Molality

	Hfo_sOHCa+2       4.895e-06       0.979   2.641e-06      -5.578
	Hfo_sOH2+         9.805e-08       0.020   5.289e-08      -7.277
	Hfo_sOH           6.988e-09       0.001   3.770e-09      -8.424
	Hfo_sO-           1.141e-11       0.000   6.156e-12     -11.211
	Hfo_sOFerrous+    4.723e-13       0.000   2.548e-13     -12.594

Hfo_w         
	  2.000e-04  moles
	                                   Mole                     Log
	Species               Moles    Fraction    Molality    Molality

	Hfo_wOH2+         7.787e-05       0.389   4.201e-05      -4.377
	Hfo_wHPO4-        7.202e-05       0.360   3.885e-05      -4.411
	Hfo_wH2PO4        4.116e-05       0.206   2.221e-05      -4.654
	Hfo_wOH           5.550e-06       0.028   2.994e-06      -5.524
	Hfo_wPO4-2        2.140e-06       0.011   1.154e-06      -5.938
	Hfo_wOMg+         6.820e-07       0.003   3.679e-07      -6.434
	Hfo_wSulfateO4-   4.274e-07       0.002   2.306e-07      -6.637
	Hfo_wOCa+         8.178e-08       0.000   4.412e-08      -7.355
	Hfo_wOHSulfateO4-2   6.058e-08       0.000   3.268e-08      -7.486
	Hfo_wO-           9.063e-09       0.000   4.889e-09      -8.311
	Hfo_wOFerrous+    3.501e-12       0.000   1.889e-12     -11.724
	Hfo_wOFerrousOH   1.305e-14       0.000   7.041e-15     -14.152

-----------------------------Exchange composition------------------------------

X                1.600e+01 mol

	                               Equiv-    Equivalent      Log 
	Species             Moles      alents      Fraction     Gamma

	CaX2              4.649e+00   9.299e+00   5.812e-01    -0.000
	MgX2              2.745e+00   5.490e+00   3.431e-01    -0.000
	NaX               1.102e+00   1.102e+00   6.890e-02    -0.000
	KX                7.155e-02   7.155e-02   4.472e-03    -0.000
	AmmH4X            3.690e-02   3.690e-02   2.307e-03    -0.000
	HX                7.776e-04   7.776e-04   4.860e-05    -0.085
	FerrousX2         7.526e-07   1.505e-06   9.408e-08    -0.408

-----------------------------Solution composition------------------------------

	Elements           Molality       Moles

	Alanine           9.008e-06   1.670e-05
	Amm               3.240e-04   6.005e-04
	C                 2.061e-02   3.819e-02
	Ca                2.311e-02   4.284e-02
	Cl                4.492e-02   8.326e-02
	Cysteine          9.020e-06   1.672e-05
	Ferric            1.764e-07   3.269e-07
	Ferrous           2.976e-08   5.517e-08
	Glutamine         9.007e-06   1.670e-05
	Glycine           1.543e-05   2.859e-05
	K                 6.788e-04   1.258e-03
	Methane           5.311e-07   9.844e-07
	Mg                1.063e-02   1.971e-02
	Na                1.615e-02   2.994e-02
	Nitrate           1.122e-02   2.080e-02
	Ozero             1.577e-04   2.923e-04
	P                 4.738e-05   8.782e-05
	Sulfate           9.045e-03   1.677e-02
	Sulfide           1.999e-03   3.706e-03
	Threonine         9.007e-06   1.670e-05
	Tyrosine          9.007e-06   1.670e-05

----------------------------Description of solution----------------------------

                                       pH  =   6.143      Charge balance
                                       pe  =  -7.129      Adjusted to redox equilibrium
      Specific Conductance (µS/cm,  25°C)  = 7367
                        Activity of water  =   0.997
                 Ionic strength (mol/kgw)  =   1.086e-01
                       Mass of water (kg)  =   1.854e+00
                 Total alkalinity (eq/kg)  =   1.032e-02
                       Total CO2 (mol/kg)  =   2.061e-02
                         Temperature (°C)  =  25.00
                           Pressure (atm)  =  0.39
                  Electrical balance (eq)  =  -1.394e-07
 Percent error, 100*(Cat-|An|)/(Cat+|An|)  =  -0.00
                               Iterations  = 116
                                  Total H  = 2.060464e+02
                                  Total O  = 1.031139e+02

----------------------------Distribution of species----------------------------

                                               Log       Log       Log    mole V
   Species          Molality    Activity  Molality  Activity     Gamma   cm³/mol

   H+              8.757e-07   7.198e-07    -6.058    -6.143    -0.085      0.00
   OH-             1.835e-08   1.386e-08    -7.736    -7.858    -0.122     (0)  
   H2O             5.551e+01   9.966e-01     1.744    -0.001     0.000     18.07
Alanine       9.008e-06
   Alanine-2       8.995e-06   3.272e-06    -5.046    -5.485    -0.439     (0)  
   H2(Alanine)     1.225e-08   1.257e-08    -7.912    -7.901     0.011     (0)  
   H(Alanine)-     6.789e-10   5.272e-10    -9.168    -9.278    -0.110     (0)  
Amm           3.240e-04
   AmmH4+          3.169e-04   2.337e-04    -3.499    -3.631    -0.132     (0)  
   AmmH4SulfateO4-   6.857e-06   5.325e-06    -5.164    -5.274    -0.110     (0)  
   AmmH3           1.804e-07   1.850e-07    -6.744    -6.733     0.011     (0)  
C(4)          2.061e-02
   CO2             1.072e-02   1.099e-02    -1.970    -1.959     0.011     (0)  
   HCO3-           8.643e-03   6.770e-03    -2.063    -2.169    -0.106     (0)  
   CaHCO3+         8.282e-04   6.487e-04    -3.082    -3.188    -0.106     (0)  
   MgHCO3+         3.593e-04   2.790e-04    -3.445    -3.554    -0.110     (0)  
   NaHCO3          4.609e-05   4.726e-05    -4.336    -4.326     0.011     (0)  
   CaCO3           5.427e-06   5.565e-06    -5.265    -5.255     0.011     (0)  
   MgCO3           1.446e-06   1.482e-06    -5.840    -5.829     0.011     (0)  
   CO3-2           1.172e-06   4.411e-07    -5.931    -6.356    -0.424     (0)  
   NaCO3-          1.313e-07   1.020e-07    -6.882    -6.992    -0.110     (0)  
   FerrousHCO3+    3.781e-10   2.936e-10    -9.422    -9.532    -0.110     (0)  
   FerrousCO3      4.476e-12   4.589e-12   -11.349   -11.338     0.011     (0)  
Ca            2.311e-02
   Ca+2            1.968e-02   7.511e-03    -1.706    -2.124    -0.418     (0)  
   CaSulfateO4     2.585e-03   2.651e-03    -2.587    -2.577     0.011     (0)  
   CaHCO3+         8.282e-04   6.487e-04    -3.082    -3.188    -0.106     (0)  
   CaHPO4          6.518e-06   6.683e-06    -5.186    -5.175     0.011     (0)  
   CaCO3           5.427e-06   5.565e-06    -5.265    -5.255     0.011     (0)  
   CaH2PO4+        4.656e-06   3.616e-06    -5.332    -5.442    -0.110     (0)  
   CaPO4-          2.829e-08   2.197e-08    -7.548    -7.658    -0.110     (0)  
   CaHSulfateO4+   1.439e-08   1.118e-08    -7.842    -7.952    -0.110     (0)  
   CaOH+           2.222e-09   1.726e-09    -8.653    -8.763    -0.110     (0)  
Cl            4.492e-02
   Cl-             4.492e-02   3.405e-02    -1.348    -1.468    -0.120     (0)  
   FerrousCl+      2.625e-11   2.039e-11   -10.581   -10.691    -0.110     (0)  
   FerricCl+2      8.287e-14   3.014e-14   -13.082   -13.521    -0.439     (0)  
   FerricCl2+      5.903e-15   4.584e-15   -14.229   -14.339    -0.110     (0)  
   FerricCl3       1.522e-17   1.561e-17   -16.817   -16.807     0.011     (0)  
Cysteine      9.020e-06
   Cysteine-2      8.921e-06   3.244e-06    -5.050    -5.489    -0.439     (0)  
   H2(Cysteine)    9.878e-08   1.013e-07    -7.005    -6.994     0.011     (0)  
   H(Cysteine)-    1.542e-10   1.198e-10    -9.812    -9.922    -0.110     (0)  
Ferric        1.764e-07
   Ferric(OH)2+    1.547e-07   1.201e-07    -6.811    -6.920    -0.110     (0)  
   Ferric(OH)3     2.090e-08   2.143e-08    -7.680    -7.669     0.011     (0)  
   FerricOH+2      7.204e-10   2.620e-10    -9.142    -9.582    -0.439     (0)  
   Ferric(OH)4-    3.485e-11   2.706e-11   -10.458   -10.568    -0.110     (0)  
   FerricSulfateO4+   7.320e-13   5.685e-13   -12.135   -12.245    -0.110     (0)  
   FerricH2PO4+2   4.081e-13   1.484e-13   -12.389   -12.828    -0.439     (0)  
   Ferric+3        1.711e-13   2.931e-14   -12.767   -13.533    -0.766     (0)  
   FerricCl+2      8.287e-14   3.014e-14   -13.082   -13.521    -0.439     (0)  
   Ferric(SulfateO4)2-   2.833e-14   2.200e-14   -13.548   -13.658    -0.110     (0)  
   FerricHPO4+     1.649e-14   1.280e-14   -13.783   -13.893    -0.110     (0)  
   FerricCl2+      5.903e-15   4.584e-15   -14.229   -14.339    -0.110     (0)  
   Ferric2(OH)2+4   1.056e-16   1.848e-18   -15.976   -17.733    -1.757     (0)  
   FerricCl3       1.522e-17   1.561e-17   -16.817   -16.807     0.011     (0)  
   FerricHSulfateO4+2   3.013e-18   1.096e-18   -17.521   -17.960    -0.439     (0)  
   Ferric3(OH)4+5   2.581e-20   4.638e-23   -19.588   -22.334    -2.745     (0)  
Ferrous       2.976e-08
   Ferrous(HSulfide)2   2.706e-08   2.775e-08    -7.568    -7.557     0.011     (0)  
   Ferrous+2       1.109e-09   4.337e-10    -8.955    -9.363    -0.408     (0)  
   Ferrous(HSulfide)3-   1.042e-09   8.095e-10    -8.982    -9.092    -0.110     (0)  
   FerrousHCO3+    3.781e-10   2.936e-10    -9.422    -9.532    -0.110     (0)  
   FerrousSulfateO4   1.331e-10   1.364e-10    -9.876    -9.865     0.011     (0)  
   FerrousCl+      2.625e-11   2.039e-11   -10.581   -10.691    -0.110     (0)  
   FerrousH2PO4+   5.267e-12   4.090e-12   -11.278   -11.388    -0.110     (0)  
   FerrousCO3      4.476e-12   4.589e-12   -11.349   -11.338     0.011     (0)  
   FerrousHPO4     2.733e-12   2.802e-12   -11.563   -11.552     0.011     (0)  
   FerrousOH+      2.445e-13   1.899e-13   -12.612   -12.721    -0.110     (0)  
   FerrousHSulfateO4+   8.312e-16   6.455e-16   -15.080   -15.190    -0.110     (0)  
Glutamine     9.007e-06
   Glutamine-2     9.004e-06   3.275e-06    -5.046    -5.485    -0.439     (0)  
   H2(Glutamine)   2.232e-09   2.289e-09    -8.651    -8.640     0.011     (0)  
   H(Glutamine)-   4.490e-10   3.487e-10    -9.348    -9.458    -0.110     (0)  
Glycine       1.543e-05
   Glycine-        1.539e-05   1.195e-05    -4.813    -4.923    -0.110     (0)  
   H2(Glycine)+    3.175e-08   2.465e-08    -7.498    -7.608    -0.110     (0)  
   H(Glycine)      1.836e-09   1.882e-09    -8.736    -8.725     0.011     (0)  
H(0)          1.295e-01
   H2              6.477e-02   6.641e-02    -1.189    -1.178     0.011     (0)  
K             6.788e-04
   K+              6.706e-04   5.084e-04    -3.174    -3.294    -0.120     (0)  
   KSulfateO4-     8.136e-06   6.319e-06    -5.090    -5.199    -0.110     (0)  
   KHPO4-          2.072e-09   1.609e-09    -8.684    -8.793    -0.110     (0)  
   KOH             2.380e-12   2.441e-12   -11.623   -11.612     0.011     (0)  
Methane       5.311e-07
   MethaneH4       5.311e-07   5.445e-07    -6.275    -6.264     0.011     (0)  
Mg            1.063e-02
   Mg+2            8.842e-03   3.522e-03    -2.053    -2.453    -0.400     (0)  
   MgSulfateO4     1.424e-03   1.461e-03    -2.846    -2.835     0.011     (0)  
   MgHCO3+         3.593e-04   2.790e-04    -3.445    -3.554    -0.110     (0)  
   MgHPO4          4.133e-06   4.238e-06    -5.384    -5.373     0.011     (0)  
   MgH2PO4+        2.781e-06   2.159e-06    -5.556    -5.666    -0.110     (0)  
   MgCO3           1.446e-06   1.482e-06    -5.840    -5.829     0.011     (0)  
   MgOH+           2.280e-08   1.771e-08    -7.642    -7.752    -0.110     (0)  
   MgPO4-          1.790e-08   1.390e-08    -7.747    -7.857    -0.110     (0)  
Na            1.615e-02
   Na+             1.596e-02   1.241e-02    -1.797    -1.906    -0.109     (0)  
   NaSulfateO4-    1.417e-04   1.101e-04    -3.849    -3.958    -0.110     (0)  
   NaHCO3          4.609e-05   4.726e-05    -4.336    -4.326     0.011     (0)  
   NaCO3-          1.313e-07   1.020e-07    -6.882    -6.992    -0.110     (0)  
   NaHPO4-         5.059e-08   3.929e-08    -7.296    -7.406    -0.110     (0)  
   NaOH            1.108e-10   1.136e-10    -9.956    -9.945     0.011     (0)  
Nitrate       1.122e-02
   NitrateO3-      1.122e-02   8.713e-03    -1.950    -2.060    -0.110     (0)  
O(0)          0.000e+00
   O2              0.000e+00   0.000e+00   -90.038   -90.027     0.011     (0)  
Ozero         1.577e-04
   Ozero2          7.885e-05   8.084e-05    -4.103    -4.092     0.011     (0)  
P             4.738e-05
   H2PO4-          2.441e-05   1.882e-05    -4.612    -4.725    -0.113     (0)  
   CaHPO4          6.518e-06   6.683e-06    -5.186    -5.175     0.011     (0)  
   HPO4-2          4.781e-06   1.623e-06    -5.320    -5.790    -0.469     (0)  
   CaH2PO4+        4.656e-06   3.616e-06    -5.332    -5.442    -0.110     (0)  
   MgHPO4          4.133e-06   4.238e-06    -5.384    -5.373     0.011     (0)  
   MgH2PO4+        2.781e-06   2.159e-06    -5.556    -5.666    -0.110     (0)  
   NaHPO4-         5.059e-08   3.929e-08    -7.296    -7.406    -0.110     (0)  
   CaPO4-          2.829e-08   2.197e-08    -7.548    -7.658    -0.110     (0)  
   MgPO4-          1.790e-08   1.390e-08    -7.747    -7.857    -0.110     (0)  
   KHPO4-          2.072e-09   1.609e-09    -8.684    -8.793    -0.110     (0)  
   PO4-3           1.156e-11   1.016e-12   -10.937   -11.993    -1.056     (0)  
   FerrousH2PO4+   5.267e-12   4.090e-12   -11.278   -11.388    -0.110     (0)  
   FerrousHPO4     2.733e-12   2.802e-12   -11.563   -11.552     0.011     (0)  
   FerricH2PO4+2   4.081e-13   1.484e-13   -12.389   -12.828    -0.439     (0)  
   FerricHPO4+     1.649e-14   1.280e-14   -13.783   -13.893    -0.110     (0)  
Sulfate       9.045e-03
   SulfateO4-2     4.879e-03   1.769e-03    -2.312    -2.752    -0.441     (0)  
   CaSulfateO4     2.585e-03   2.651e-03    -2.587    -2.577     0.011     (0)  
   MgSulfateO4     1.424e-03   1.461e-03    -2.846    -2.835     0.011     (0)  
   NaSulfateO4-    1.417e-04   1.101e-04    -3.849    -3.958    -0.110     (0)  
   KSulfateO4-     8.136e-06   6.319e-06    -5.090    -5.199    -0.110     (0)  
   AmmH4SulfateO4-   6.857e-06   5.325e-06    -5.164    -5.274    -0.110     (0)  
   HSulfateO4-     1.594e-07   1.238e-07    -6.798    -6.907    -0.110     (0)  
   CaHSulfateO4+   1.439e-08   1.118e-08    -7.842    -7.952    -0.110     (0)  
   FerrousSulfateO4   1.331e-10   1.364e-10    -9.876    -9.865     0.011     (0)  
   FerricSulfateO4+   7.320e-13   5.685e-13   -12.135   -12.245    -0.110     (0)  
   Ferric(SulfateO4)2-   2.833e-14   2.200e-14   -13.548   -13.658    -0.110     (0)  
   FerrousHSulfateO4+   8.312e-16   6.455e-16   -15.080   -15.190    -0.110     (0)  
   FerricHSulfateO4+2   3.013e-18   1.096e-18   -17.521   -17.960    -0.439     (0)  
Sulfide       1.999e-03
   H2Sulfide       1.644e-03   1.686e-03    -2.784    -2.773     0.011     (0)  
   HSulfide-       3.547e-04   2.679e-04    -3.450    -3.572    -0.122     (0)  
   Ferrous(HSulfide)2   2.706e-08   2.775e-08    -7.568    -7.557     0.011     (0)  
   Ferrous(HSulfide)3-   1.042e-09   8.095e-10    -8.982    -9.092    -0.110     (0)  
   Sulfide-2       1.228e-10   4.496e-11    -9.911   -10.347    -0.436     (0)  
Threonine     9.007e-06
   Threonine-2     9.004e-06   3.275e-06    -5.046    -5.485    -0.439     (0)  
   H2(Threonine)   2.181e-09   2.237e-09    -8.661    -8.650     0.011     (0)  
   H(Threonine)-   4.288e-10   3.330e-10    -9.368    -9.478    -0.110     (0)  
Tyrosine      9.007e-06
   Tyrosine-2      9.004e-06   3.275e-06    -5.046    -5.485    -0.439     (0)  
   H2(Tyrosine)    2.132e-09   2.186e-09    -8.671    -8.660     0.011     (0)  
   H(Tyrosine)-    4.811e-10   3.736e-10    -9.318    -9.428    -0.110     (0)  

------------------------------Saturation indices-------------------------------

  Phase               SI** log IAP   log K(298 K,   0 atm)

  FixpH            -6.14     -6.14    0.00  H+
  H2(g)             1.97     -1.18   -3.15  H2
  H2O(g)           -1.51     -0.00    1.51  H2O
  Halite           -4.96     -3.37    1.58  NaCl
  Hydroxyapatite    0.00     -3.42   -3.42  Ca5(PO4)3OH
  ORM             805.41    -73.82 -879.23  C5H4O2Amm
  redoxAnhydrite   -0.52     -4.88   -4.36  CaSulfateO4
  redoxAragonite   -0.14     -8.48   -8.34  CaCO3
  redoxCalcite      0.00     -8.48   -8.48  CaCO3
  redoxCH4(g)      -3.40     -6.26   -2.86  MethaneH4
  redoxCO2(g)      -0.49     -1.96   -1.47  CO2
  redoxDolomite    -0.20    -17.29  -17.09  CaMg(CO3)2
  redoxFe(OH)3(a)  -0.00      4.89    4.89  Ferric(OH)3
  redoxFeS(ppt)    -2.88     -6.79   -3.92  FerrousSulfide
  redoxGoethite     5.89      4.89   -1.00  FerricOOH
  redoxGypsum      -0.30     -4.88   -4.58  CaSulfateO4:2H2O
  redoxH2S(g)      -1.78     -2.77   -1.00  H2Sulfide
  redoxHematite    13.79      9.79   -4.01  Ferric2O3
  redoxJarosite-K  -3.34    -12.55   -9.21  KFerric3(SulfateO4)2(OH)6
  redoxMackinawite  -2.14     -6.79   -4.65  FerrousSulfide
  redoxMelanterite  -9.92    -12.13   -2.21  FerrousSulfateO4:7H2O
  redoxNH3(g)      -8.50     -6.73    1.77  AmmH3
  redoxO2(g)       -1.20     -4.09   -2.89  Ozero2
  redoxPyrite       0.00    -18.48  -18.48  FerrousSulfide2
  redoxSiderite    -4.83    -15.72  -10.89  FerrousCO3
  redoxSulfur      -9.63     -4.75    4.88  Sulfide
  redoxVivianite  -16.09    -52.09  -36.00  Ferrous3(PO4)2:8H2O

**For a gas, SI = log10(fugacity). Fugacity = pressure * phi / 1 atm.
  For ideal gases, phi = 1.

------------------
End of simulation.
------------------

------------------------------------
Reading input data for simulation 4.
------------------------------------

---------------------------------
End of Run after 50.5752 Seconds.
---------------------------------

