   Input file: solution.phrq
  Output file: solution.phrq.out
Database file: ../database/redox.dat

------------------
Reading data base.
------------------

	SOLUTION_MASTER_SPECIES
	SOLUTION_SPECIES
	PHASES
	EXCHANGE_MASTER_SPECIES
	EXCHANGE_SPECIES
	SURFACE_MASTER_SPECIES
	SURFACE_SPECIES
	RATES
	END
------------------------------------
Reading input data for simulation 1.
------------------------------------

	DATABASE ../database/redox.dat
	TITLE Redox biogeochemisty owc (DOE PDF FOA)
	CALCULATE_VALUES
	SC_T25
	 start
	 10 sc25 = SC/(1+0.021*(temperature-25))   #in us/cm
	 20 SAVE sc25
	 end
	fsl1    ##more sensitive (green)
	 start
	 10 fsl1 = 1 / (1.0 + exp(1.68 * (log10(CALC_VALUE("SC_T25")/1000)+0.26))) #log(ds/m)
	 40 SAVE fsl1
	 end
	fsl2     ##medium (purple)
	 start
	 10 fsl2 = 1 / (1.0 + exp(2.28 * (log10(CALC_VALUE("SC_T25")/1000)-0.60)))  #log(ds/m)
	 40 SAVE fsl2
	 end
	fsl3     ##medium (red)
	 start
	 10 fsl3 = 1 / (1.0 + exp(2.23 * (log10(CALC_VALUE("SC_T25")/1000)-1.11)))  #log(ds/m)
	 40 SAVE fsl3
	 end
	fsl4    ##more resistant (black)
	 start
	 10 fsl4 = 1 / (1.0 + exp(4.03 * (log10(CALC_VALUE("SC_T25")/1000)-1.78)))  #log(ds/m)
	 40 SAVE fsl4
	 end
	SOLUTION 1      
	units mmol/L        #Dfault is mmol/kg water 
	pH    7  charge
	temperature 	 25
	water         0.1    #based on 1 kg weight soil
	Na          25
	Ca          2
	Cl          25
	Sulfate     5
	K           1
	Mg         4
	C(4)       3 
	  SAVE SOLUTION 1
	END
-----
TITLE
-----

 Redox biogeochemisty owc (DOE PDF FOA)

-------------------------------------------
Beginning of initial solution calculations.
-------------------------------------------

Initial solution 1.	

-----------------------------Solution composition------------------------------

	Elements           Molality       Moles

	C(4)              3.007e-03   3.007e-04
	Ca                2.005e-03   2.005e-04
	Cl                2.506e-02   2.506e-03
	K                 1.002e-03   1.002e-04
	Mg                4.009e-03   4.009e-04
	Na                2.506e-02   2.506e-03
	Sulfate           5.012e-03   5.012e-04

----------------------------Description of solution----------------------------

                                       pH  =   7.965      Charge balance
                                       pe  =   4.000    
      Specific Conductance (µS/cm,  25°C)  = 3824
                        Activity of water  =   0.999
                 Ionic strength (mol/kgw)  =   4.448e-02
                       Mass of water (kg)  =   1.000e-01
                 Total alkalinity (eq/kg)  =   3.007e-03
                       Total CO2 (mol/kg)  =   3.007e-03
                         Temperature (°C)  =  25.00
                  Electrical balance (eq)  =   3.027e-16
 Percent error, 100*(Cat-|An|)/(Cat+|An|)  =   0.00
                               Iterations  =   7
                                  Total H  = 1.110153e+01
                                  Total O  = 5.553523e+00

----------------------------Distribution of species----------------------------

                                               Log       Log       Log    mole V
   Species          Molality    Activity  Molality  Activity     Gamma   cm³/mol

   OH-             1.126e-06   9.224e-07    -5.949    -6.035    -0.087     (0)  
   H+              1.263e-08   1.084e-08    -7.899    -7.965    -0.066      0.00
   H2O             5.551e+01   9.989e-01     1.744    -0.000     0.000     18.07
C(4)          3.007e-03
   HCO3-           2.787e-03   2.328e-03    -2.555    -2.633    -0.078     (0)  
   CO2             5.622e-05   5.680e-05    -4.250    -4.246     0.004     (0)  
   MgHCO3+         5.338e-05   4.419e-05    -4.273    -4.355    -0.082     (0)  
   CaHCO3+         2.895e-05   2.418e-05    -4.538    -4.617    -0.078     (0)  
   NaHCO3          2.667e-05   2.695e-05    -4.574    -4.569     0.004     (0)  
   CO3-2           2.071e-05   1.007e-05    -4.684    -4.997    -0.313     (0)  
   MgCO3           1.543e-05   1.559e-05    -4.812    -4.807     0.004     (0)  
   CaCO3           1.363e-05   1.377e-05    -4.866    -4.861     0.004     (0)  
   NaCO3-          4.662e-06   3.860e-06    -5.331    -5.413    -0.082     (0)  
Ca            2.005e-03
   Ca+2            1.671e-03   8.141e-04    -2.777    -3.089    -0.312     (0)  
   CaSulfateO4     2.915e-04   2.945e-04    -3.535    -3.531     0.004     (0)  
   CaHCO3+         2.895e-05   2.418e-05    -4.538    -4.617    -0.078     (0)  
   CaCO3           1.363e-05   1.377e-05    -4.866    -4.861     0.004     (0)  
   CaOH+           1.504e-08   1.245e-08    -7.823    -7.905    -0.082     (0)  
   CaHSulfateO4+   2.259e-11   1.870e-11   -10.646   -10.728    -0.082     (0)  
Cl            2.506e-02
   Cl-             2.506e-02   2.056e-02    -1.601    -1.687    -0.086     (0)  
H(0)          1.647e-27
   H2              8.237e-28   8.321e-28   -27.084   -27.080     0.004     (0)  
K             1.002e-03
   K+              9.898e-04   8.122e-04    -3.004    -3.090    -0.086     (0)  
   KSulfateO4-     1.250e-05   1.035e-05    -4.903    -4.985    -0.082     (0)  
   KOH             2.568e-10   2.595e-10    -9.590    -9.586     0.004     (0)  
Mg            4.009e-03
   Mg+2            3.257e-03   1.623e-03    -2.487    -2.790    -0.303     (0)  
   MgSulfateO4     6.825e-04   6.896e-04    -3.166    -3.161     0.004     (0)  
   MgHCO3+         5.338e-05   4.419e-05    -4.273    -4.355    -0.082     (0)  
   MgCO3           1.543e-05   1.559e-05    -4.812    -4.807     0.004     (0)  
   MgOH+           6.557e-07   5.428e-07    -6.183    -6.265    -0.082     (0)  
Na            2.506e-02
   Na+             2.480e-02   2.059e-02    -1.606    -1.686    -0.081     (0)  
   NaSulfateO4-    2.259e-04   1.870e-04    -3.646    -3.728    -0.082     (0)  
   NaHCO3          2.667e-05   2.695e-05    -4.574    -4.569     0.004     (0)  
   NaCO3-          4.662e-06   3.860e-06    -5.331    -5.413    -0.082     (0)  
   NaOH            1.240e-08   1.253e-08    -7.906    -7.902     0.004     (0)  
O(0)          1.189e-38
   O2              5.946e-39   6.007e-39   -38.226   -38.221     0.004     (0)  
Sulfate       5.012e-03
   SulfateO4-2     3.799e-03   1.813e-03    -2.420    -2.742    -0.321     (0)  
   MgSulfateO4     6.825e-04   6.896e-04    -3.166    -3.161     0.004     (0)  
   CaSulfateO4     2.915e-04   2.945e-04    -3.535    -3.531     0.004     (0)  
   NaSulfateO4-    2.259e-04   1.870e-04    -3.646    -3.728    -0.082     (0)  
   KSulfateO4-     1.250e-05   1.035e-05    -4.903    -4.985    -0.082     (0)  
   HSulfateO4-     2.308e-09   1.911e-09    -8.637    -8.719    -0.082     (0)  
   CaHSulfateO4+   2.259e-11   1.870e-11   -10.646   -10.728    -0.082     (0)  

------------------------------Saturation indices-------------------------------

  Phase               SI** log IAP   log K(298 K,   1 atm)

  FixpH            -7.96     -7.96    0.00  H+
  H2(g)           -23.93    -27.08   -3.15  H2
  H2O(g)           -1.51     -0.00    1.51  H2O
  Halite           -4.96     -3.37    1.58  NaCl
  redoxAnhydrite   -1.47     -5.83   -4.36  CaSulfateO4
  redoxAragonite    0.25     -8.09   -8.34  CaCO3
  redoxCalcite      0.39     -8.09   -8.48  CaCO3
  redoxCO2(g)      -2.78     -4.25   -1.47  CO2
  redoxDolomite     1.22    -15.87  -17.09  CaMg(CO3)2
  redoxGypsum      -1.25     -5.83   -4.58  CaSulfateO4:2H2O

**For a gas, SI = log10(fugacity). Fugacity = pressure * phi / 1 atm.
  For ideal gases, phi = 1.

------------------
End of simulation.
------------------

------------------------------------
Reading input data for simulation 2.
------------------------------------

	USE SOLUTION 1
	EXCHANGE_SPECIES
	 X- = X-
	 log_k 0     #semicolon is logical end of line
	 X- + AmmH4+ = AmmH4X
	  log_k  0.25   #define the half-reactions of ion change
	 2X- + Ca+2  = CaX2
	    log_k  0.4    $logK's relative 
	 2X- + Mg+2  = MgX2
	    log_k  0.5
	 X- + Na+  = NaX
	      log_k  0.0
	 X- + K+  = KX
	       log_k  0.2
	EXCHANGE 1   #exchanger in equilibirium 
	  X         8  #exchanger amount in mol
	  equilibrate with solution 1
	  exchange_gammas   true
	EQUILIBRIUM_PHASES 1
	  redoxCalcite      0  0.001     #CaCo3
	  redoxFeS(ppt)     0  0.001     #FeS
	  Hydroxyapatite    0  0.001     #Ca5(PO4)3OH
	  redoxPyrite       0  0.001     #FeS2
	  redoxFe(OH)3(a)   0  2   
	SURFACE 1
	 Hfo_wOH 2e-4  600  280  #site density (per nm2), SSA (m2/g), gram
	 Hfo_sOH 5e-6
	donnan 1e-8   #defuse layer thickness
	  H_a   3.837E-02  3.417E+04     60  ##gram of SOM for exchange
	  H_b   3.837E-02
	 H_c   3.837E-02
	 H_d  3.837E-02
	  H_e   1.919E-02
	 H_f   1.919E-02
	 H_g  1.919E-02
	 H_h  1.919E-02
	  H_ab  6.378E-02
	 H_ad  6.378E-02
	 H_af  6.378E-02
	 H_ah  6.378E-02
	  H_bc  6.378E-02
	 H_be  6.378E-02
	 H_bg  6.378E-05
	 H_cd  6.378E-05
	  H_cf  6.378E-02
	 H_ch  6.378E-02
	 H_de  6.378E-05
	 H_dg  6.378E-05
	 equilibrate with solution 1
	KINETICS  Decomposition  ##in mgC per g soil
	cvode
	BA
	   m0   0.416
	   formula CH2O 0.0  
	   parms 9.68 0.25 0.001 0.4  #parm(1)=Vd, parm(2)=Kd, parm(3)=PEP, parm(4)=CUE
	POM
	   m0   4.71
	   formula CH2O 0.0  
	   parms 51.3  50  2e-5  0.5   #vp1, kp1, Ip1, gD-fraction of dead BA to D
	MOM
	   m0   17.67
	   formula CH2O 0.0
	   parms 0.82 250 0.5   #vm, km, fD- fraction of decomposed p1/p2 to D
	DOM
	   m0   0.148
	   formula CH2O 0.0
	   parms  0.5  0.5  2e-5
	QOM
	   m0   0
	   formula CH2O 0.0
	   parms 0.006 0.5  0.001   #adsorption constant, Qmax, desorption constant
	EP
	   m0   0.052
	   formula CH2O 0.0
	   parms  0.001
	EM
	   m0   0.052
	   formula CH2O 0.0
	   parms  0.001
	respiration
	   m0   0
	   formula CH2O 0.0 
	   parms  0.4
	Tot
	   m0   23.38
	   formula CH2O 0.0
	Salt  ##saltwater ion stoichiometry
	   m0   0.001
	   formula  CH2O 0.0   Cl-  -25   Na+  -25   K+  -1  Sulfate  -5  Ca+2  -2  Mg+2  -4   HCO3  -3 
	   parms 0.01  ## mol per gram soil per day
	   steps 4 in 4 steps #day
	  INCREMENTAL_REACTIONS true
	RATES
	BA
	   start
	     2 f1 = 1
	    10 mDOM= kin("DOM")
	    20 bio = kin("BA")
	    30 uptake=parm(1)* bio * mDOM/(parm(2)+mDOM)   #parm(1)=Vd, parm(2)=Kd
	    40 put(uptake, 1) #microbil uptake flux                                      
	    50 decay=(1-parm(3)*2)*parm(1)*0.1*bio*bio*0.1      #parm(3)=pEP=pEM (exoemzyme production rate); 0.1*Vd=biomass decay rate
	    60 put(decay, 2)                                           ##maintenance respiration
	    70 pexo = parm(3)*bio*parm(1)*0.1    #exoenzyme production enzyme production rate=0.1*Vd
	    80 put(pexo, 3)                                             ##mortality
	    90 rate = get(1)*parm(4)-get(2)-get(3)-get(3) #parm(4)=CUE
	    100 save -rate * time 
	   end
	POM
	   start
	     2 f1 = 1
	    10 mPOM = kin("POM")
	    20 ep = kin("EP")
	    30 deco = parm(1) * ep * mPOM/(parm(2)+mPOM) # parm(1)=Vp, parm(2)=Kp
	    40 put (deco, 4)  #POM decomposition
	    50 rate = (1-parm(4))*get(2)-get(4)  #parm(3)=input, parm(4)=gD, fraction of decayed biomass C going to DOM pool
	    100 save -rate * time
	   end
	MOM
	   start
	     2 f1 = 1
	    10 mMOM = kin("MOM")
	    20 em = kin("EM")
	    30 flux = parm(1) * em * mMOM /(parm(2)+ mMOM) # parm(1)=VM, parm(2)=KM
	    40 put(flux,5)  #MOM decomposition flux
	    50 rate = (1-parm(3))*get(4)-get(5)  #parm(3)=fD_fraction of decomposed P to D
	    100 save -rate*time
	   end
	DOM
	   start
	    10 rate = (1-parm(1))*get(4)+parm(2)* get(2)+get(5)+(get(8)+get(9))-get(1)-(get(6)-get(7))
	    100 save -rate* time
	   end
	QOM
	   start
	     2 f1 = 1
	    10 mQOM = kin("QOM")
	    20 D = kin("DOM")
	    30 flux1 = parm(1) * (1-mQOM/parm(2))* D #adsorption flux, parm(1)=adsorption constant, parm(2)=Qmax
	    40 put(flux1,6)  #adsorption flux
	    50 flux2 = parm(3) * (mQOM/parm(2)) #parm(3)=desorption constant, parm(2)=Qmax
	    60 put(flux2,7)  #desorption flux
	    70 rate = get(6)-get(7)
	    100 save -rate * time
	   end
	EP
	   start
	    10 ep = kin("EP")
	    20 flux1 = parm(1)*ep #enzyme decay
	    30 put (flux1,8)
	    40 rate = get(3)-get(8)
	    100 save -rate * time
	   end
	EM
	   start
	    10 em = kin("EM")
	    20 flux1= parm(1)* em
	    30 put (flux1,9)
	    40 rate = get(3)-get(9)
	    100  save -rate * time
	   end
	respiration
	   start
	    10 rate = (1- parm(1))*get(1) #parm(1)=CUE
	    20 put (rate, 10)
	    30 save -rate * time
	   end
	Tot
	   start
	    10 rate = -get(10)
	    20 save -rate * time
	   end
	Salt
	   start
	    10 salt=kin("salt")
	    20 rate = parm(1)*(0.1-salt)   ## The incoming concentration is important
	    30 save -rate * time
	   end
	SELECTED_OUTPUT
	  reset false
	  ph true
	  ionic_strength true
	  file solution.txt
	USER_PUNCH
	  start
	  heading Time pH  Na  K  Ca  Mg  PO4  Cl  SO4 NH4 HCO3 SC  fsl1  fsl2  fsl3  fsl4 POM MOM QOM DOM BA EP EM IC Total  FeS Calcite  Ca-PO4  Pyrite 
	  10 PUNCH SIM_TIME
	  20 PUNCH -la("H+")
	  30 PUNCH tot("Na")  tot("K")  mol("Ca+2")  tot("Mg") tot("P")  tot("Cl")  tot("Sulfate") tot ("Amm")  tot("C(4)")
	  40 PUNCH CALC_VALUE ("SC_T25")
	  50 PUNCH CALC_VALUE("fsl1")  CALC_VALUE("fsl2")  CALC_VALUE("fsl3")  CALC_VALUE("fsl4")
	  60 PUNCH kin('POM') kin('MOM') kin('QOM') kin('DOM') kin('BA') kin('EP') kin('EM')
	  70 PUNCH kin('respiration') kin("Tot")
	  80 PUNCH equi("redoxFeS(ppt)")  equi("redoxCalcite") equi("Hydroxyapatite")  equi("redoxPyrite")
	  end
	END
-------------------------------------------------------
Beginning of initial exchange-composition calculations.
-------------------------------------------------------

Exchange 1.	

X                8.000e+00 mol

	                               Equiv-    Equivalent      Log 
	Species             Moles      alents      Fraction     Gamma

	MgX2              2.211e+00   4.422e+00   5.527e-01     0.000
	NaX               1.709e+00   1.709e+00   2.137e-01     0.000
	CaX2              8.811e-01   1.762e+00   2.203e-01     0.000
	KX                1.069e-01   1.069e-01   1.336e-02     0.000
	HX                1.049e-05   1.049e-05   1.311e-06    -0.066

------------------------------------------------------
Beginning of initial surface-composition calculations.
------------------------------------------------------

Surface 1.	

Diffuse Double Layer Surface-Complexation Model

H             
	  8.648e-11  Surface + diffuse layer charge, eq
	 -6.768e-01  Surface charge, eq
	 -3.186e-02  sigma, C/m²
	 -5.502e-02  psi, V
	  2.142e+00  -F*psi/RT
	  8.513e+00  exp(-F*psi/RT)
	  3.417e+04  specific area, m²/g
	  2.050e+06  m² for   6.000e+01 g

	Water in diffuse layer: 2.050e+01 kg, 92.4% of total DDL-water.

	Total moles in diffuse layer (excluding water), Donnan calculation.
	Donnan Layer potential, psi_DL = -9.001e-03 V.
	Boltzmann factor, exp(-psi_DL * F / RT) = 1.420e+00 (= c_DL / c_free if z is +1).

	Element       	     Moles
	C             	  4.5226e-02
	Ca            	  7.6121e-02
	Cl            	  3.6191e-01
	H             	  4.3236e-02
	K             	  2.8989e-02
	Mg            	  1.5046e-01
	Na            	  7.2570e-01
	O             	  3.8282e-01
	Sulfate       	  6.2066e-02

H_a           
	  3.837e-02  moles
	                                   Mole                     Log
	Species               Moles    Fraction    Molality    Molality

	H_a-              3.823e-02       0.996   3.823e-01      -0.418
	H_aMg+            8.765e-05       0.002   8.765e-04      -3.057
	H_aCa+            5.536e-05       0.001   5.536e-04      -3.257
	H_aH              1.373e-07       0.000   1.373e-06      -5.862

H_ab          
	  6.378e-02  moles
	                                   Mole                     Log
	Species               Moles    Fraction    Molality    Molality

	H_ab-2            6.371e-02       0.999   6.371e-01      -0.196
	H_abMg            3.669e-05       0.001   3.669e-04      -3.435
	H_abCa            2.918e-05       0.000   2.918e-04      -3.535
	H_abH-            2.947e-06       0.000   2.947e-05      -4.531
	H_abH2            1.058e-11       0.000   1.058e-10      -9.975

H_ad          
	  6.378e-02  moles
	                                   Mole                     Log
	Species               Moles    Fraction    Molality    Molality

	H_ad-2            5.389e-02       0.845   5.389e-01      -0.268
	H_adMg            5.271e-03       0.083   5.271e-02      -1.278
	H_adCa            4.191e-03       0.066   4.191e-02      -1.378
	H_adH-            4.234e-04       0.007   4.234e-03      -2.373
	H_adH2            1.520e-09       0.000   1.520e-08      -7.818

H_af          
	  6.378e-02  moles
	                                   Mole                     Log
	Species               Moles    Fraction    Molality    Molality

	H_afH-            3.348e-02       0.525   3.348e-01      -0.475
	H_afCa            2.954e-02       0.463   2.954e-01      -0.530
	H_af-2            6.913e-04       0.011   6.913e-03      -2.160
	H_afMg            6.310e-05       0.001   6.310e-04      -3.200
	H_afH2            1.202e-07       0.000   1.202e-06      -5.920

H_ah          
	  6.378e-02  moles
	                                   Mole                     Log
	Species               Moles    Fraction    Molality    Molality

	H_ahH-            6.356e-02       0.997   6.356e-01      -0.197
	H_ahMg            1.198e-04       0.002   1.198e-03      -2.922
	H_ahCa            9.973e-05       0.002   9.973e-04      -3.001
	H_ah-2            2.742e-07       0.000   2.742e-06      -5.562
	H_ahH2            2.282e-07       0.000   2.282e-06      -5.642

H_b           
	  3.837e-02  moles
	                                   Mole                     Log
	Species               Moles    Fraction    Molality    Molality

	H_b-              3.660e-02       0.954   3.660e-01      -0.436
	H_bMg+            1.081e-03       0.028   1.081e-02      -1.966
	H_bCa+            6.829e-04       0.018   6.829e-03      -2.166
	H_bH              1.693e-06       0.000   1.693e-05      -4.771

H_bc          
	  6.378e-02  moles
	                                   Mole                     Log
	Species               Moles    Fraction    Molality    Molality

	H_bc-2            5.423e-02       0.850   5.423e-01      -0.266
	H_bcMg            5.304e-03       0.083   5.304e-02      -1.275
	H_bcCa            4.217e-03       0.066   4.217e-02      -1.375
	H_bcH-            3.307e-05       0.001   3.307e-04      -3.481
	H_bcH2            1.530e-09       0.000   1.530e-08      -7.815

H_be          
	  6.378e-02  moles
	                                   Mole                     Log
	Species               Moles    Fraction    Molality    Molality

	H_be-2            3.684e-02       0.578   3.684e-01      -0.434
	H_beH-            2.579e-02       0.404   2.579e-01      -0.589
	H_beMg            6.262e-04       0.010   6.262e-03      -2.203
	H_beCa            5.214e-04       0.008   5.214e-03      -2.283
	H_beH2            1.193e-06       0.000   1.193e-05      -4.923

H_bg          
	  6.378e-05  moles
	                                   Mole                     Log
	Species               Moles    Fraction    Molality    Molality

	H_bgH-            6.104e-05       0.957   6.104e-04      -3.214
	H_bgMg            1.482e-06       0.023   1.482e-05      -4.829
	H_bgCa            1.234e-06       0.019   1.234e-05      -4.909
	H_bg-2            1.822e-08       0.000   1.822e-07      -6.740
	H_bgH2            2.824e-09       0.000   2.824e-08      -7.549

H_c           
	  3.837e-02  moles
	                                   Mole                     Log
	Species               Moles    Fraction    Molality    Molality

	H_c-              2.345e-02       0.611   2.345e-01      -0.630
	H_cMg+            9.133e-03       0.238   9.133e-02      -1.039
	H_cCa+            5.768e-03       0.150   5.768e-02      -1.239
	H_cH              1.430e-05       0.000   1.430e-04      -3.845

H_cd          
	  6.378e-05  moles
	                                   Mole                     Log
	Species               Moles    Fraction    Molality    Molality

	H_cdMg            3.437e-05       0.539   3.437e-04      -3.464
	H_cdCa            2.733e-05       0.428   2.733e-04      -3.563
	H_cd-2            2.069e-06       0.032   2.069e-05      -4.684
	H_cdH-            1.625e-08       0.000   1.625e-07      -6.789
	H_cdH2            9.911e-12       0.000   9.911e-11     -10.004

H_cf          
	  6.378e-02  moles
	                                   Mole                     Log
	Species               Moles    Fraction    Molality    Molality

	H_cfH-            3.967e-02       0.622   3.967e-01      -0.402
	H_cfMg            1.270e-02       0.199   1.270e-01      -0.896
	H_cfCa            1.057e-02       0.166   1.057e-01      -0.976
	H_cf-2            8.190e-04       0.013   8.190e-03      -2.087
	H_cfH2            2.419e-05       0.000   2.419e-04      -3.616

H_ch          
	  6.378e-02  moles
	                                   Mole                     Log
	Species               Moles    Fraction    Molality    Molality

	H_chH-            4.019e-02       0.630   4.019e-01      -0.396
	H_chMg            1.286e-02       0.202   1.286e-01      -0.891
	H_chCa            1.071e-02       0.168   1.071e-01      -0.970
	H_chH2            2.450e-05       0.000   2.450e-04      -3.611
	H_ch-2            1.733e-07       0.000   1.733e-06      -5.761

H_d           
	  3.837e-02  moles
	                                   Mole                     Log
	Species               Moles    Fraction    Molality    Molality

	H_dMg+            2.094e-02       0.546   2.094e-01      -0.679
	H_dCa+            1.322e-02       0.345   1.322e-01      -0.879
	H_d-              4.174e-03       0.109   4.174e-02      -1.379
	H_dH              3.279e-05       0.001   3.279e-04      -3.484

H_de          
	  6.378e-05  moles
	                                   Mole                     Log
	Species               Moles    Fraction    Molality    Molality

	H_deMg            2.632e-05       0.413   2.632e-04      -3.580
	H_deCa            2.191e-05       0.344   2.191e-04      -3.659
	H_de-2            9.117e-06       0.143   9.117e-05      -4.040
	H_deH-            6.383e-06       0.100   6.383e-05      -4.195
	H_deH2            5.014e-08       0.001   5.014e-07      -6.300

H_dg          
	  6.378e-05  moles
	                                   Mole                     Log
	Species               Moles    Fraction    Molality    Molality

	H_dgMg            3.071e-05       0.481   3.071e-04      -3.513
	H_dgCa            2.557e-05       0.401   2.557e-04      -3.592
	H_dgH-            7.448e-06       0.117   7.448e-05      -4.128
	H_dgH2            5.851e-08       0.001   5.851e-07      -6.233
	H_dg-2            2.222e-09       0.000   2.222e-08      -7.653

H_e           
	  1.919e-02  moles
	                                   Mole                     Log
	Species               Moles    Fraction    Molality    Molality

	H_e-              1.058e-02       0.551   1.058e-01      -0.975
	H_eH              7.408e-03       0.386   7.408e-02      -1.130
	H_eMg+            7.160e-04       0.037   7.160e-03      -2.145
	H_eCa+            4.846e-04       0.025   4.846e-03      -2.315

H_f           
	  1.919e-02  moles
	                                   Mole                     Log
	Species               Moles    Fraction    Molality    Molality

	H_fH              1.623e-02       0.846   1.623e-01      -0.790
	H_fMg+            1.568e-03       0.082   1.568e-02      -1.805
	H_fCa+            1.061e-03       0.055   1.061e-02      -1.974
	H_f-              3.350e-04       0.017   3.350e-03      -2.475

H_g           
	  1.919e-02  moles
	                                   Mole                     Log
	Species               Moles    Fraction    Molality    Molality

	H_gH              1.651e-02       0.860   1.651e-01      -0.782
	H_gMg+            1.596e-03       0.083   1.596e-02      -1.797
	H_gCa+            1.080e-03       0.056   1.080e-02      -1.967
	H_g-              4.927e-06       0.000   4.927e-05      -4.307

H_h           
	  1.919e-02  moles
	                                   Mole                     Log
	Species               Moles    Fraction    Molality    Molality

	H_hH              1.651e-02       0.861   1.651e-01      -0.782
	H_hMg+            1.596e-03       0.083   1.596e-02      -1.797
	H_hCa+            1.080e-03       0.056   1.080e-02      -1.967
	H_h-              7.123e-08       0.000   7.123e-07      -6.147

Hfo           
	 -4.795e-15  Surface + diffuse layer charge, eq
	  1.613e-04  Surface charge, eq
	  9.263e-05  sigma, C/m²
	  1.924e-04  psi, V
	 -7.488e-03  -F*psi/RT
	  9.925e-01  exp(-F*psi/RT)
	  6.000e+02  specific area, m²/g
	  1.680e+05  m² for   2.800e+02 g

	Water in diffuse layer: 1.680e+00 kg,  7.6% of total DDL-water.

	Total moles in diffuse layer (excluding water), Donnan calculation.
	Donnan Layer potential, psi_DL =  2.773e-05 V.
	Boltzmann factor, exp(-psi_DL * F / RT) = 9.989e-01 (= c_DL / c_free if z is +1).

	Element       	     Moles
	C             	  5.0568e-03
	Ca            	  3.3618e-03
	Cl            	  4.2144e-02
	H             	  4.8739e-03
	K             	  1.6822e-03
	Mg            	  6.7239e-03
	Na            	  4.2054e-02
	O             	  4.8815e-02
	Sulfate       	  8.4339e-03

Hfo_s         
	  5.000e-06  moles
	                                   Mole                     Log
	Species               Moles    Fraction    Molality    Molality

	Hfo_sOHCa+2       4.913e-06       0.983   4.913e-05      -4.309
	Hfo_sOH           6.565e-08       0.013   6.565e-07      -6.183
	Hfo_sOH2+         1.377e-08       0.003   1.377e-07      -6.861
	Hfo_sO-           7.168e-09       0.001   7.168e-08      -7.145

Hfo_w         
	  2.000e-04  moles
	                                   Mole                     Log
	Species               Moles    Fraction    Molality    Molality

	Hfo_wOMg+         1.444e-04       0.722   1.444e-03      -2.840
	Hfo_wOH           3.870e-05       0.193   3.870e-04      -3.412
	Hfo_wOH2+         8.120e-06       0.041   8.120e-05      -4.090
	Hfo_wO-           4.225e-06       0.021   4.225e-05      -4.374
	Hfo_wOCa+         4.074e-06       0.020   4.074e-05      -4.390
	Hfo_wOHSulfateO4-2   4.391e-07       0.002   4.391e-06      -5.357
	Hfo_wSulfateO4-   4.622e-08       0.000   4.622e-07      -6.335

-----------------------------------------
Beginning of batch-reaction calculations.
-----------------------------------------

Reaction step 1.

WARNING: CVode incomplete at cvode_steps 100. Cell: 0	Time: 6.360372e-01	Cvode calls: 1, continuing...

Using solution 1.	
Using exchange 1.	Exchange assemblage after simulation 2.
Using surface 1.	
Using pure phase assemblage 1.	
Using kinetics 1.	Decomposition  

Kinetics 1.	Decomposition  

	Time step: 1 seconds  (Incremented time: 1 seconds)

	Rate name       Delta Moles Total Moles   Reactant        Coefficient

	BA                8.387e-02   4.999e-01   CH2O                      0
	POM              -2.145e-01   4.496e+00   CH2O                      0
	MOM               1.100e-01   1.778e+01   CH2O                      0
	DOM              -1.413e-01   6.705e-03   CH2O                      0
	QOM               1.084e-04   1.084e-04   CH2O                      0
	EP                4.144e-04   5.241e-02   CH2O                      0
	EM                4.144e-04   5.241e-02   CH2O                      0
	respiration       1.609e-01   1.609e-01   CH2O                      0
	Tot              -1.609e-01   2.322e+01   CH2O                      0
	Salt              9.851e-04   1.985e-03   CH2O                      0
	                                          Ca+2                     -2
	                                          Cl-                     -25
	                                          HCO3                     -3
	                                          K+                       -1
	                                          Mg+2                     -4
	                                          Na+                     -25
	                                          Sulfate                  -5

-------------------------------Phase assemblage--------------------------------

                                                      Moles in assemblage
Phase               SI  log IAP  log K(T, P)   Initial       Final       Delta

Hydroxyapatite    0.00    -3.42     -3.42    1.000e-03   9.882e-04  -1.184e-05
redoxCalcite      0.00    -8.48     -8.48    1.000e-03   2.584e-02   2.484e-02
redoxFe(OH)3(a)   -0.00     4.89      4.89    2.000e+00   2.000e+00  -5.919e-07
redoxFeS(ppt)    -0.79    -4.70     -3.92    1.000e-03           0  -1.000e-03
redoxPyrite       0.00   -18.48    -18.48    1.000e-03   1.484e-03   4.837e-04

------------------------------Surface composition------------------------------

Diffuse Double Layer Surface-Complexation Model

H             
	  6.603e-09  Surface + diffuse layer charge, eq
	 -6.849e-01  Surface charge, eq
	 -3.224e-02  sigma, C/m²
	 -5.504e-02  psi, V
	  2.142e+00  -F*psi/RT
	  8.520e+00  exp(-F*psi/RT)
	  3.417e+04  specific area, m²/g
	  2.050e+06  m² for   6.000e+01 g

	Water in diffuse layer: 2.050e+01 kg, 92.4% of total DDL-water.

	Total moles in diffuse layer (excluding water), Donnan calculation.
	Donnan Layer potential, psi_DL = -8.922e-03 V.
	Boltzmann factor, exp(-psi_DL * F / RT) = 1.415e+00 (= c_DL / c_free if z is +1).

	Element       	     Moles
	C             	  2.5678e-02
	Ca            	  7.6345e-02
	Cl            	  3.8397e-01
	Ferric        	  5.4599e-07
	Ferrous       	  2.0653e-05
	H             	  6.1648e-02
	K             	  2.9408e-02
	Mg            	  1.5379e-01
	Na            	  7.3724e-01
	O             	  3.4194e-01
	P             	  2.5323e-05
	Sulfate       	  6.6421e-02
	Sulfide       	  2.9203e-05

H_a           
	  3.837e-02  moles
	                                   Mole                     Log
	Species               Moles    Fraction    Molality    Molality

	H_a-              3.822e-02       0.996   3.836e-01      -0.416
	H_aMg+            8.984e-05       0.002   9.017e-04      -3.045
	H_aCa+            5.578e-05       0.001   5.598e-04      -3.252
	H_aH              1.922e-07       0.000   1.929e-06      -5.715

H_ab          
	  6.378e-02  moles
	                                   Mole                     Log
	Species               Moles    Fraction    Molality    Molality

	H_ab-2            6.371e-02       0.999   6.394e-01      -0.194
	H_abMg            3.761e-05       0.001   3.775e-04      -3.423
	H_abCa            2.940e-05       0.000   2.950e-04      -3.530
	H_abH-            4.127e-06       0.000   4.142e-05      -4.383
	H_abH2            2.075e-11       0.000   2.083e-10      -9.681

H_ad          
	  6.378e-02  moles
	                                   Mole                     Log
	Species               Moles    Fraction    Molality    Molality

	H_ad-2            5.361e-02       0.841   5.381e-01      -0.269
	H_adMg            5.376e-03       0.084   5.395e-02      -1.268
	H_adCa            4.201e-03       0.066   4.216e-02      -1.375
	H_adH-            5.898e-04       0.009   5.919e-03      -2.228
	H_adH2            2.966e-09       0.000   2.976e-08      -7.526

H_af          
	  6.378e-02  moles
	                                   Mole                     Log
	Species               Moles    Fraction    Molality    Molality

	H_afH-            3.863e-02       0.606   3.877e-01      -0.412
	H_afCa            2.453e-02       0.385   2.461e-01      -0.609
	H_af-2            5.695e-04       0.009   5.716e-03      -2.243
	H_afMg            5.329e-05       0.001   5.349e-04      -3.272
	H_afH2            1.942e-07       0.000   1.949e-06      -5.710

H_ah          
	  6.378e-02  moles
	                                   Mole                     Log
	Species               Moles    Fraction    Molality    Molality

	H_ahH-            6.362e-02       0.997   6.385e-01      -0.195
	H_ahMg            8.777e-05       0.001   8.808e-04      -3.055
	H_ahCa            7.183e-05       0.001   7.209e-04      -3.142
	H_ahH2            3.199e-07       0.000   3.210e-06      -5.493
	H_ah-2            1.960e-07       0.000   1.967e-06      -5.706

H_b           
	  3.837e-02  moles
	                                   Mole                     Log
	Species               Moles    Fraction    Molality    Molality

	H_b-              3.657e-02       0.953   3.670e-01      -0.435
	H_bMg+            1.107e-03       0.029   1.111e-02      -1.954
	H_bCa+            6.875e-04       0.018   6.900e-03      -2.161
	H_bH              2.369e-06       0.000   2.378e-05      -4.624

H_bc          
	  6.378e-02  moles
	                                   Mole                     Log
	Species               Moles    Fraction    Molality    Molality

	H_bc-2            5.407e-02       0.848   5.427e-01      -0.265
	H_bcMg            5.422e-03       0.085   5.441e-02      -1.264
	H_bcCa            4.237e-03       0.066   4.253e-02      -1.371
	H_bcH-            4.617e-05       0.001   4.634e-04      -3.334
	H_bcH2            2.991e-09       0.000   3.002e-08      -7.523

H_be          
	  6.378e-02  moles
	                                   Mole                     Log
	Species               Moles    Fraction    Molality    Molality

	H_be-2            3.170e-02       0.497   3.181e-01      -0.497
	H_beH-            3.108e-02       0.487   3.119e-01      -0.506
	H_beMg            5.523e-04       0.009   5.543e-03      -2.256
	H_beCa            4.520e-04       0.007   4.536e-03      -2.343
	H_beH2            2.013e-06       0.000   2.020e-05      -4.695

H_bg          
	  6.378e-05  moles
	                                   Mole                     Log
	Species               Moles    Fraction    Molality    Molality

	H_bgH-            6.177e-05       0.968   6.199e-04      -3.208
	H_bgMg            1.098e-06       0.017   1.102e-05      -4.958
	H_bgCa            8.984e-07       0.014   9.016e-06      -5.045
	H_bg-2            1.316e-08       0.000   1.321e-07      -6.879
	H_bgH2            4.001e-09       0.000   4.015e-08      -7.396

H_c           
	  3.837e-02  moles
	                                   Mole                     Log
	Species               Moles    Fraction    Molality    Molality

	H_c-              2.329e-02       0.607   2.337e-01      -0.631
	H_cMg+            9.295e-03       0.242   9.328e-02      -1.030
	H_cCa+            5.770e-03       0.150   5.791e-02      -1.237
	H_cH              1.988e-05       0.001   1.996e-04      -3.700

H_cd          
	  6.378e-05  moles
	                                   Mole                     Log
	Species               Moles    Fraction    Molality    Molality

	H_cdMg            3.465e-05       0.543   3.477e-04      -3.459
	H_cdCa            2.708e-05       0.425   2.717e-04      -3.566
	H_cd-2            2.035e-06       0.032   2.042e-05      -4.690
	H_cdH-            2.238e-08       0.000   2.246e-07      -6.649
	H_cdH2            1.911e-11       0.000   1.918e-10      -9.717

H_cf          
	  6.378e-02  moles
	                                   Mole                     Log
	Species               Moles    Fraction    Molality    Molality

	H_cfH-            4.424e-02       0.694   4.440e-01      -0.353
	H_cfMg            1.037e-02       0.163   1.040e-01      -0.983
	H_cfCa            8.483e-03       0.133   8.513e-02      -1.070
	H_cf-2            6.523e-04       0.010   6.546e-03      -2.184
	H_cfH2            3.778e-05       0.001   3.792e-04      -3.421

H_ch          
	  6.378e-02  moles
	                                   Mole                     Log
	Species               Moles    Fraction    Molality    Molality

	H_chH-            4.470e-02       0.701   4.486e-01      -0.348
	H_chMg            1.047e-02       0.164   1.051e-01      -0.978
	H_chCa            8.570e-03       0.134   8.601e-02      -1.065
	H_chH2            3.817e-05       0.001   3.831e-04      -3.417
	H_ch-2            1.377e-07       0.000   1.382e-06      -5.860

H_d           
	  3.837e-02  moles
	                                   Mole                     Log
	Species               Moles    Fraction    Molality    Molality

	H_dMg+            2.111e-02       0.550   2.119e-01      -0.674
	H_dCa+            1.311e-02       0.342   1.315e-01      -0.881
	H_d-              4.106e-03       0.107   4.121e-02      -1.385
	H_dH              4.516e-05       0.001   4.533e-04      -3.344

H_de          
	  6.378e-05  moles
	                                   Mole                     Log
	Species               Moles    Fraction    Molality    Molality

	H_deMg            2.560e-05       0.401   2.569e-04      -3.590
	H_deCa            2.095e-05       0.328   2.103e-04      -3.677
	H_de-2            8.652e-06       0.136   8.683e-05      -4.061
	H_deH-            8.482e-06       0.133   8.513e-05      -4.070
	H_deH2            9.331e-08       0.001   9.365e-07      -6.029

H_dg          
	  6.378e-05  moles
	                                   Mole                     Log
	Species               Moles    Fraction    Molality    Molality

	H_dgMg            2.962e-05       0.464   2.972e-04      -3.527
	H_dgCa            2.424e-05       0.380   2.433e-04      -3.614
	H_dgH-            9.813e-06       0.154   9.849e-05      -4.007
	H_dgH2            1.080e-07       0.002   1.083e-06      -5.965
	H_dg-2            2.091e-09       0.000   2.099e-08      -7.678

H_e           
	  1.919e-02  moles
	                                   Mole                     Log
	Species               Moles    Fraction    Molality    Molality

	H_e-              9.156e-03       0.477   9.189e-02      -1.037
	H_eH              8.977e-03       0.468   9.009e-02      -1.045
	H_eMg+            6.351e-04       0.033   6.374e-03      -2.196
	H_eCa+            4.225e-04       0.022   4.240e-03      -2.373

H_f           
	  1.919e-02  moles
	                                   Mole                     Log
	Species               Moles    Fraction    Molality    Molality

	H_fH              1.694e-02       0.883   1.701e-01      -0.769
	H_fMg+            1.199e-03       0.062   1.203e-02      -1.920
	H_fCa+            7.975e-04       0.042   8.003e-03      -2.097
	H_f-              2.498e-04       0.013   2.507e-03      -2.601

H_g           
	  1.919e-02  moles
	                                   Mole                     Log
	Species               Moles    Fraction    Molality    Molality

	H_gH              1.716e-02       0.894   1.723e-01      -0.764
	H_gMg+            1.214e-03       0.063   1.219e-02      -1.914
	H_gCa+            8.078e-04       0.042   8.107e-03      -2.091
	H_g-              3.658e-06       0.000   3.671e-05      -4.435

H_h           
	  1.919e-02  moles
	                                   Mole                     Log
	Species               Moles    Fraction    Molality    Molality

	H_hH              1.717e-02       0.895   1.723e-01      -0.764
	H_hMg+            1.215e-03       0.063   1.219e-02      -1.914
	H_hCa+            8.080e-04       0.042   8.109e-03      -2.091
	H_h-              5.288e-08       0.000   5.307e-07      -6.275

Hfo           
	 -1.211e-12  Surface + diffuse layer charge, eq
	  1.365e-04  Surface charge, eq
	  7.838e-05  sigma, C/m²
	  1.609e-04  psi, V
	 -6.264e-03  -F*psi/RT
	  9.938e-01  exp(-F*psi/RT)
	  6.000e+02  specific area, m²/g
	  1.680e+05  m² for   2.800e+02 g

	Water in diffuse layer: 1.680e+00 kg,  7.6% of total DDL-water.

	Total moles in diffuse layer (excluding water), Donnan calculation.
	Donnan Layer potential, psi_DL =  2.293e-05 V.
	Boltzmann factor, exp(-psi_DL * F / RT) = 9.991e-01 (= c_DL / c_free if z is +1).

	Element       	     Moles
	C             	  2.8550e-03
	Ca            	  3.3914e-03
	Cl            	  4.4568e-02
	Ferric        	  4.3373e-08
	Ferrous       	  9.4327e-07
	H             	  5.7962e-03
	K             	  1.7126e-03
	Mg            	  6.9228e-03
	Na            	  4.2864e-02
	O             	  4.4397e-02
	P             	  2.8941e-06
	Sulfate       	  8.9730e-03
	Sulfide       	  3.2577e-06

Hfo_s         
	  5.000e-06  moles
	                                   Mole                     Log
	Species               Moles    Fraction    Molality    Molality

	Hfo_sOHCa+2       4.814e-06       0.963   4.832e-05      -4.316
	Hfo_sOFerrous+    9.835e-08       0.020   9.870e-07      -6.006
	Hfo_sOH           6.378e-08       0.013   6.401e-07      -6.194
	Hfo_sOH2+         1.875e-08       0.004   1.882e-07      -6.725
	Hfo_sO-           4.971e-09       0.001   4.989e-08      -7.302

Hfo_w         
	  2.000e-04  moles
	                                   Mole                     Log
	Species               Moles    Fraction    Molality    Molality

	Hfo_wOMg+         1.252e-04       0.626   1.256e-03      -2.901
	Hfo_wOH           4.580e-05       0.229   4.596e-04      -3.338
	Hfo_wOH2+         1.346e-05       0.067   1.351e-04      -3.869
	Hfo_wPO4-2        4.167e-06       0.021   4.182e-05      -4.379
	Hfo_wO-           3.569e-06       0.018   3.582e-05      -4.446
	Hfo_wOCa+         3.471e-06       0.017   3.483e-05      -4.458
	Hfo_wHPO4-        2.938e-06       0.015   2.949e-05      -4.530
	Hfo_wOFerrous+    6.590e-07       0.003   6.614e-06      -5.180
	Hfo_wOHSulfateO4-2   5.466e-07       0.003   5.486e-06      -5.261
	Hfo_wOFerrousOH   1.175e-07       0.001   1.180e-06      -5.928
	Hfo_wSulfateO4-   8.062e-08       0.000   8.091e-07      -6.092
	Hfo_wH2PO4        3.519e-08       0.000   3.531e-07      -6.452

-----------------------------Exchange composition------------------------------

X                8.000e+00 mol

	                               Equiv-    Equivalent      Log 
	Species             Moles      alents      Fraction     Gamma

	MgX2              2.217e+00   4.433e+00   5.542e-01     0.000
	NaX               1.722e+00   1.722e+00   2.152e-01     0.000
	CaX2              8.683e-01   1.737e+00   2.171e-01     0.000
	KX                1.074e-01   1.074e-01   1.343e-02     0.000
	FerrousX2         4.938e-04   9.876e-04   1.234e-04    -0.306
	HX                1.454e-05   1.454e-05   1.817e-06    -0.067

-----------------------------Solution composition------------------------------

	Elements           Molality       Moles

	C                 1.698e-03   1.692e-04
	Ca                2.022e-03   2.014e-04
	Cl                2.650e-02   2.641e-03
	Ferric            2.582e-08   2.573e-09
	Ferrous           5.623e-07   5.603e-08
	K                 1.020e-03   1.017e-04
	Mg                4.127e-03   4.112e-04
	Na                2.554e-02   2.544e-03
	P                 1.721e-06   1.715e-07
	Sulfate           5.334e-03   5.314e-04
	Sulfide           1.938e-06   1.931e-07

----------------------------Description of solution----------------------------

                                       pH  =   7.819      Charge balance
                                       pe  =  -7.875      Adjusted to redox equilibrium
      Specific Conductance (µS/cm,  25°C)  = 3926
                        Activity of water  =   0.999
                 Ionic strength (mol/kgw)  =   4.550e-02
                       Mass of water (kg)  =   9.964e-02
                 Total alkalinity (eq/kg)  =   1.681e-03
                       Total CO2 (mol/kg)  =   1.698e-03
                         Temperature (°C)  =  25.00
                  Electrical balance (eq)  =  -1.317e-09
 Percent error, 100*(Cat-|An|)/(Cat+|An|)  =  -0.00
                               Iterations  = 189
                                  Total H  = 1.106171e+01
                                  Total O  = 5.533312e+00

----------------------------Distribution of species----------------------------

                                               Log       Log       Log    mole V
   Species          Molality    Activity  Molality  Activity     Gamma   cm³/mol

   OH-             8.061e-07   6.592e-07    -6.094    -6.181    -0.087     (0)  
   H+              1.769e-08   1.517e-08    -7.752    -7.819    -0.067      0.00
   H2O             5.551e+01   9.989e-01     1.744    -0.000     0.000     18.07
C(4)          1.698e-03
   HCO3-           1.569e-03   1.308e-03    -2.804    -2.883    -0.079     (0)  
   CO2             4.421e-05   4.468e-05    -4.354    -4.350     0.005     (0)  
   MgHCO3+         3.076e-05   2.543e-05    -4.512    -4.595    -0.083     (0)  
   CaHCO3+         1.640e-05   1.367e-05    -4.785    -4.864    -0.079     (0)  
   NaHCO3          1.525e-05   1.541e-05    -4.817    -4.812     0.005     (0)  
   CO3-2           8.368e-06   4.045e-06    -5.077    -5.393    -0.316     (0)  
   MgCO3           6.344e-06   6.410e-06    -5.198    -5.193     0.005     (0)  
   CaCO3           5.507e-06   5.565e-06    -5.259    -5.255     0.005     (0)  
   NaCO3-          1.909e-06   1.578e-06    -5.719    -5.802    -0.083     (0)  
   FerrousHCO3+    3.321e-08   2.745e-08    -7.479    -7.561    -0.083     (0)  
   FerrousCO3      2.014e-08   2.036e-08    -7.696    -7.691     0.005     (0)  
Ca            2.022e-03
   Ca+2            1.690e-03   8.189e-04    -2.772    -3.087    -0.315     (0)  
   CaSulfateO4     3.091e-04   3.124e-04    -3.510    -3.505     0.005     (0)  
   CaHCO3+         1.640e-05   1.367e-05    -4.785    -4.864    -0.079     (0)  
   CaCO3           5.507e-06   5.565e-06    -5.259    -5.255     0.005     (0)  
   CaHPO4          1.686e-07   1.703e-07    -6.773    -6.769     0.005     (0)  
   CaPO4-          3.214e-08   2.657e-08    -7.493    -7.576    -0.083     (0)  
   CaOH+           1.083e-08   8.949e-09    -7.966    -8.048    -0.083     (0)  
   CaH2PO4+        2.350e-09   1.942e-09    -8.629    -8.712    -0.083     (0)  
   CaHSulfateO4+   3.358e-11   2.776e-11   -10.474   -10.557    -0.083     (0)  
Cl            2.650e-02
   Cl-             2.650e-02   2.171e-02    -1.577    -1.663    -0.087     (0)  
   FerrousCl+      7.605e-09   6.287e-09    -8.119    -8.202    -0.083     (0)  
   FerricCl+2      3.827e-19   1.787e-19   -18.417   -18.748    -0.331     (0)  
   FerricCl2+      2.096e-20   1.733e-20   -19.679   -19.761    -0.083     (0)  
   FerricCl3       3.722e-23   3.761e-23   -22.429   -22.425     0.005     (0)  
Ferric        2.582e-08
   Ferric(OH)3     2.121e-08   2.143e-08    -7.674    -7.669     0.005     (0)  
   Ferric(OH)2+    3.056e-09   2.526e-09    -8.515    -8.598    -0.083     (0)  
   Ferric(OH)4-    1.557e-09   1.287e-09    -8.808    -8.890    -0.083     (0)  
   FerricOH+2      2.482e-13   1.159e-13   -12.605   -12.936    -0.331     (0)  
   FerricSulfateO4+   6.911e-18   5.713e-18   -17.160   -17.243    -0.083     (0)  
   Ferric+3        1.086e-18   2.725e-19   -17.964   -18.565    -0.600     (0)  
   FerricCl+2      3.827e-19   1.787e-19   -18.417   -18.748    -0.331     (0)  
   Ferric(SulfateO4)2-   2.890e-19   2.389e-19   -18.539   -18.622    -0.083     (0)  
   FerricHPO4+     3.367e-20   2.783e-20   -19.473   -19.556    -0.083     (0)  
   FerricCl2+      2.096e-20   1.733e-20   -19.679   -19.761    -0.083     (0)  
   FerricH2PO4+2   1.456e-20   6.799e-21   -19.837   -20.168    -0.331     (0)  
   FerricCl3       3.722e-23   3.761e-23   -22.429   -22.425     0.005     (0)  
   Ferric2(OH)2+4   7.606e-24   3.613e-25   -23.119   -24.442    -1.323     (0)  
   FerricHSulfateO4+2   4.971e-25   2.321e-25   -24.304   -24.634    -0.331     (0)  
   Ferric3(OH)4+5   2.228e-29   1.907e-31   -28.652   -30.720    -2.068     (0)  
Ferrous       5.623e-07
   Ferrous+2       4.248e-07   2.098e-07    -6.372    -6.678    -0.306     (0)  
   FerrousSulfateO4   7.057e-08   7.131e-08    -7.151    -7.147     0.005     (0)  
   FerrousHCO3+    3.321e-08   2.745e-08    -7.479    -7.561    -0.083     (0)  
   FerrousCO3      2.014e-08   2.036e-08    -7.696    -7.691     0.005     (0)  
   FerrousCl+      7.605e-09   6.287e-09    -8.119    -8.202    -0.083     (0)  
   FerrousOH+      5.284e-09   4.368e-09    -8.277    -8.360    -0.083     (0)  
   Ferrous(HSulfide)2   3.785e-10   3.825e-10    -9.422    -9.417     0.005     (0)  
   FerrousHPO4     3.135e-10   3.168e-10    -9.504    -9.499     0.005     (0)  
   FerrousH2PO4+   1.179e-11   9.746e-12   -10.928   -11.011    -0.083     (0)  
   Ferrous(HSulfide)3-   7.207e-14   5.957e-14   -13.142   -13.225    -0.083     (0)  
   FerrousHSulfateO4+   8.603e-15   7.111e-15   -14.065   -14.148    -0.083     (0)  
H(0)          1.812e-03
   H2              9.059e-04   9.154e-04    -3.043    -3.038     0.005     (0)  
K             1.020e-03
   K+              1.007e-03   8.247e-04    -2.997    -3.084    -0.087     (0)  
   KSulfateO4-     1.340e-05   1.108e-05    -4.873    -4.956    -0.083     (0)  
   KHPO4-          7.380e-10   6.100e-10    -9.132    -9.215    -0.083     (0)  
   KOH             1.863e-10   1.883e-10    -9.730    -9.725     0.005     (0)  
Mg            4.127e-03
   Mg+2            3.352e-03   1.661e-03    -2.475    -2.780    -0.305     (0)  
   MgSulfateO4     7.365e-04   7.442e-04    -3.133    -3.128     0.005     (0)  
   MgHCO3+         3.076e-05   2.543e-05    -4.512    -4.595    -0.083     (0)  
   MgCO3           6.344e-06   6.410e-06    -5.198    -5.193     0.005     (0)  
   MgOH+           4.803e-07   3.970e-07    -6.318    -6.401    -0.083     (0)  
   MgHPO4          4.622e-07   4.670e-07    -6.335    -6.331     0.005     (0)  
   MgPO4-          8.792e-08   7.267e-08    -7.056    -7.139    -0.083     (0)  
   MgH2PO4+        6.068e-09   5.016e-09    -8.217    -8.300    -0.083     (0)  
Na            2.554e-02
   Na+             2.528e-02   2.095e-02    -1.597    -1.679    -0.082     (0)  
   NaSulfateO4-    2.428e-04   2.007e-04    -3.615    -3.697    -0.083     (0)  
   NaHCO3          1.525e-05   1.541e-05    -4.817    -4.812     0.005     (0)  
   NaCO3-          1.909e-06   1.578e-06    -5.719    -5.802    -0.083     (0)  
   NaHPO4-         1.875e-08   1.550e-08    -7.727    -7.810    -0.083     (0)  
   NaOH            9.018e-09   9.113e-09    -8.045    -8.040     0.005     (0)  
O(0)          0.000e+00
   O2              0.000e+00   0.000e+00   -86.309   -86.304     0.005     (0)  
P             1.721e-06
   HPO4-2          8.298e-07   3.794e-07    -6.081    -6.421    -0.340     (0)  
   MgHPO4          4.622e-07   4.670e-07    -6.335    -6.331     0.005     (0)  
   CaHPO4          1.686e-07   1.703e-07    -6.773    -6.769     0.005     (0)  
   H2PO4-          1.121e-07   9.269e-08    -6.950    -7.033    -0.083     (0)  
   MgPO4-          8.792e-08   7.267e-08    -7.056    -7.139    -0.083     (0)  
   CaPO4-          3.214e-08   2.657e-08    -7.493    -7.576    -0.083     (0)  
   NaHPO4-         1.875e-08   1.550e-08    -7.727    -7.810    -0.083     (0)  
   MgH2PO4+        6.068e-09   5.016e-09    -8.217    -8.300    -0.083     (0)  
   CaH2PO4+        2.350e-09   1.942e-09    -8.629    -8.712    -0.083     (0)  
   KHPO4-          7.380e-10   6.100e-10    -9.132    -9.215    -0.083     (0)  
   FerrousHPO4     3.135e-10   3.168e-10    -9.504    -9.499     0.005     (0)  
   PO4-3           6.559e-11   1.127e-11   -10.183   -10.948    -0.765     (0)  
   FerrousH2PO4+   1.179e-11   9.746e-12   -10.928   -11.011    -0.083     (0)  
   FerricHPO4+     3.367e-20   2.783e-20   -19.473   -19.556    -0.083     (0)  
   FerricH2PO4+2   1.456e-20   6.799e-21   -19.837   -20.168    -0.331     (0)  
Sulfate       5.334e-03
   SulfateO4-2     4.032e-03   1.912e-03    -2.395    -2.719    -0.324     (0)  
   MgSulfateO4     7.365e-04   7.442e-04    -3.133    -3.128     0.005     (0)  
   CaSulfateO4     3.091e-04   3.124e-04    -3.510    -3.505     0.005     (0)  
   NaSulfateO4-    2.428e-04   2.007e-04    -3.615    -3.697    -0.083     (0)  
   KSulfateO4-     1.340e-05   1.108e-05    -4.873    -4.956    -0.083     (0)  
   FerrousSulfateO4   7.057e-08   7.131e-08    -7.151    -7.147     0.005     (0)  
   HSulfateO4-     3.411e-09   2.820e-09    -8.467    -8.550    -0.083     (0)  
   CaHSulfateO4+   3.358e-11   2.776e-11   -10.474   -10.557    -0.083     (0)  
   FerrousHSulfateO4+   8.603e-15   7.111e-15   -14.065   -14.148    -0.083     (0)  
   FerricSulfateO4+   6.911e-18   5.713e-18   -17.160   -17.243    -0.083     (0)  
   Ferric(SulfateO4)2-   2.890e-19   2.389e-19   -18.539   -18.622    -0.083     (0)  
   FerricHSulfateO4+2   4.971e-25   2.321e-25   -24.304   -24.634    -0.331     (0)  
Sulfide       1.938e-06
   HSulfide-       1.749e-06   1.430e-06    -5.757    -5.845    -0.087     (0)  
   H2Sulfide       1.877e-07   1.897e-07    -6.726    -6.722     0.005     (0)  
   Ferrous(HSulfide)2   3.785e-10   3.825e-10    -9.422    -9.417     0.005     (0)  
   Sulfide-2       2.392e-11   1.139e-11   -10.621   -10.944    -0.322     (0)  
   Ferrous(HSulfide)3-   7.207e-14   5.957e-14   -13.142   -13.225    -0.083     (0)  

------------------------------Saturation indices-------------------------------

  Phase               SI** log IAP   log K(298 K,   1 atm)

  FixpH            -7.82     -7.82    0.00  H+
  H2(g)             0.11     -3.04   -3.15  H2
  H2O(g)           -1.51     -0.00    1.51  H2O
  Halite           -4.92     -3.34    1.58  NaCl
  Hydroxyapatite    0.00     -3.42   -3.42  Ca5(PO4)3OH
  redoxAnhydrite   -1.44     -5.81   -4.36  CaSulfateO4
  redoxAragonite   -0.14     -8.48   -8.34  CaCO3
  redoxCalcite      0.00     -8.48   -8.48  CaCO3
  redoxCO2(g)      -2.88     -4.35   -1.47  CO2
  redoxDolomite     0.44    -16.65  -17.09  CaMg(CO3)2
  redoxFe(OH)3(a)  -0.00      4.89    4.89  Ferric(OH)3
  redoxFeS(ppt)    -0.79     -4.70   -3.92  FerrousSulfide
  redoxGoethite     5.89      4.89   -1.00  FerricOOH
  redoxGypsum      -1.23     -5.81   -4.58  CaSulfateO4:2H2O
  redoxH2S(g)      -5.72     -6.72   -1.00  H2Sulfide
  redoxHematite    13.79      9.78   -4.01  Ferric2O3
  redoxJarosite-K  -8.09    -17.30   -9.21  KFerric3(SulfateO4)2(OH)6
  redoxMackinawite  -0.06     -4.70   -4.65  FerrousSulfide
  redoxMelanterite  -7.19     -9.40   -2.21  FerrousSulfateO4:7H2O
  redoxPyrite       0.00    -18.48  -18.48  FerrousSulfide2
  redoxSiderite    -1.18    -12.07  -10.89  FerrousCO3
  redoxSulfur     -11.72     -6.83    4.88  Sulfide
  redoxVivianite   -5.93    -41.93  -36.00  Ferrous3(PO4)2:8H2O

**For a gas, SI = log10(fugacity). Fugacity = pressure * phi / 1 atm.
  For ideal gases, phi = 1.

Reaction step 2.

Using solution 1.	
Using exchange 1.	Exchange assemblage after simulation 2.
Using surface 1.	
Using pure phase assemblage 1.	
Using kinetics 1.	Decomposition  

Kinetics 1.	Decomposition  

	Time step: 1 seconds  (Incremented time: 2 seconds)

	Rate name       Delta Moles Total Moles   Reactant        Coefficient

	BA                2.370e-02   5.236e-01   CH2O                      0
	POM              -2.054e-01   4.290e+00   CH2O                      0
	MOM               1.061e-01   1.789e+01   CH2O                      0
	DOM              -4.484e-04   6.257e-03   CH2O                      0
	QOM               3.858e-05   1.470e-04   CH2O                      0
	EP                4.430e-04   5.286e-02   CH2O                      0
	EM                4.430e-04   5.286e-02   CH2O                      0
	respiration       7.504e-02   2.360e-01   CH2O                      0
	Tot              -7.504e-02   2.314e+01   CH2O                      0
	Salt              9.753e-04   2.960e-03   CH2O                      0
	                                          Ca+2                     -2
	                                          Cl-                     -25
	                                          HCO3                     -3
	                                          K+                       -1
	                                          Mg+2                     -4
	                                          Na+                     -25
	                                          Sulfate                  -5

-------------------------------Phase assemblage--------------------------------

                                                      Moles in assemblage
Phase               SI  log IAP  log K(T, P)   Initial       Final       Delta

Hydroxyapatite    0.00    -3.42     -3.42    9.882e-04   9.878e-04  -3.729e-07
redoxCalcite      0.00    -8.48     -8.48    2.584e-02   2.810e-02   2.263e-03
redoxFe(OH)3(a)    0.00     4.89      4.89    2.000e+00   2.000e+00  -3.149e-09
redoxFeS(ppt)    -0.65    -4.57     -3.92    0.000e+00           0   0.000e+00
redoxPyrite      -0.00   -18.48    -18.48    1.484e-03   1.477e-03  -6.441e-06

------------------------------Surface composition------------------------------

Diffuse Double Layer Surface-Complexation Model

H             
	  3.117e-09  Surface + diffuse layer charge, eq
	 -6.866e-01  Surface charge, eq
	 -3.232e-02  sigma, C/m²
	 -5.429e-02  psi, V
	  2.113e+00  -F*psi/RT
	  8.275e+00  exp(-F*psi/RT)
	  3.417e+04  specific area, m²/g
	  2.050e+06  m² for   6.000e+01 g

	Water in diffuse layer: 2.050e+01 kg, 92.4% of total DDL-water.

	Total moles in diffuse layer (excluding water), Donnan calculation.
	Donnan Layer potential, psi_DL = -8.594e-03 V.
	Boltzmann factor, exp(-psi_DL * F / RT) = 1.397e+00 (= c_DL / c_free if z is +1).

	Element       	     Moles
	C             	  2.6307e-02
	Ca            	  7.9209e-02
	Cl            	  4.0626e-01
	Ferric        	  5.4899e-07
	Ferrous       	  2.1486e-05
	H             	  9.8119e-02
	K             	  2.9987e-02
	Mg            	  1.5982e-01
	Na            	  7.5235e-01
	O             	  3.6160e-01
	P             	  2.6272e-05
	Sulfate       	  7.0877e-02
	Sulfide       	  4.0780e-05

H_a           
	  3.837e-02  moles
	                                   Mole                     Log
	Species               Moles    Fraction    Molality    Molality

	H_a-              3.823e-02       0.996   3.850e-01      -0.415
	H_aMg+            8.910e-05       0.002   8.973e-04      -3.047
	H_aCa+            5.522e-05       0.001   5.561e-04      -3.255
	H_aH              1.971e-07       0.000   1.985e-06      -5.702

H_ab          
	  6.378e-02  moles
	                                   Mole                     Log
	Species               Moles    Fraction    Molality    Molality

	H_ab-2            6.371e-02       0.999   6.416e-01      -0.193
	H_abMg            3.730e-05       0.001   3.757e-04      -3.425
	H_abCa            2.910e-05       0.000   2.931e-04      -3.533
	H_abH-            4.232e-06       0.000   4.262e-05      -4.370
	H_abH2            2.182e-11       0.000   2.198e-10      -9.658

H_ad          
	  6.378e-02  moles
	                                   Mole                     Log
	Species               Moles    Fraction    Molality    Molality

	H_ad-2            5.367e-02       0.842   5.406e-01      -0.267
	H_adMg            5.337e-03       0.084   5.375e-02      -1.270
	H_adCa            4.164e-03       0.065   4.193e-02      -1.377
	H_adH-            6.055e-04       0.009   6.098e-03      -2.215
	H_adH2            3.122e-09       0.000   3.145e-08      -7.502

H_af          
	  6.378e-02  moles
	                                   Mole                     Log
	Species               Moles    Fraction    Molality    Molality

	H_afH-            3.916e-02       0.614   3.944e-01      -0.404
	H_afCa            2.400e-02       0.376   2.417e-01      -0.617
	H_af-2            5.630e-04       0.009   5.670e-03      -2.246
	H_afMg            5.224e-05       0.001   5.262e-04      -3.279
	H_afH2            2.019e-07       0.000   2.034e-06      -5.692

H_ah          
	  6.378e-02  moles
	                                   Mole                     Log
	Species               Moles    Fraction    Molality    Molality

	H_ahH-            6.363e-02       0.998   6.408e-01      -0.193
	H_ahMg            8.487e-05       0.001   8.548e-04      -3.068
	H_ahCa            6.934e-05       0.001   6.984e-04      -3.156
	H_ahH2            3.281e-07       0.000   3.304e-06      -5.481
	H_ah-2            1.911e-07       0.000   1.925e-06      -5.716

H_b           
	  3.837e-02  moles
	                                   Mole                     Log
	Species               Moles    Fraction    Molality    Molality

	H_b-              3.659e-02       0.954   3.685e-01      -0.434
	H_bMg+            1.099e-03       0.029   1.106e-02      -1.956
	H_bCa+            6.808e-04       0.018   6.857e-03      -2.164
	H_bH              2.431e-06       0.000   2.448e-05      -4.611

H_bc          
	  6.378e-02  moles
	                                   Mole                     Log
	Species               Moles    Fraction    Molality    Molality

	H_bc-2            5.415e-02       0.849   5.454e-01      -0.263
	H_bcMg            5.384e-03       0.084   5.422e-02      -1.266
	H_bcCa            4.200e-03       0.066   4.230e-02      -1.374
	H_bcH-            4.742e-05       0.001   4.776e-04      -3.321
	H_bcH2            3.150e-09       0.000   3.172e-08      -7.499

H_be          
	  6.378e-02  moles
	                                   Mole                     Log
	Species               Moles    Fraction    Molality    Molality

	H_beH-            3.148e-02       0.494   3.171e-01      -0.499
	H_be-2            3.131e-02       0.491   3.154e-01      -0.501
	H_beMg            5.410e-04       0.008   5.449e-03      -2.264
	H_beCa            4.420e-04       0.007   4.452e-03      -2.351
	H_beH2            2.091e-06       0.000   2.106e-05      -4.676

H_bg          
	  6.378e-05  moles
	                                   Mole                     Log
	Species               Moles    Fraction    Molality    Molality

	H_bgH-            6.183e-05       0.969   6.227e-04      -3.206
	H_bgMg            1.063e-06       0.017   1.070e-05      -4.971
	H_bgCa            8.681e-07       0.014   8.743e-06      -5.058
	H_bg-2            1.285e-08       0.000   1.294e-07      -6.888
	H_bgH2            4.107e-09       0.000   4.137e-08      -7.383

H_c           
	  3.837e-02  moles
	                                   Mole                     Log
	Species               Moles    Fraction    Molality    Molality

	H_c-              2.337e-02       0.609   2.353e-01      -0.628
	H_cMg+            9.250e-03       0.241   9.316e-02      -1.031
	H_cCa+            5.732e-03       0.149   5.773e-02      -1.239
	H_cH              2.046e-05       0.001   2.061e-04      -3.686

H_cd          
	  6.378e-05  moles
	                                   Mole                     Log
	Species               Moles    Fraction    Molality    Molality

	H_cdMg            3.466e-05       0.543   3.491e-04      -3.457
	H_cdCa            2.704e-05       0.424   2.724e-04      -3.565
	H_cd-2            2.053e-06       0.032   2.067e-05      -4.685
	H_cdH-            2.316e-08       0.000   2.332e-07      -6.632
	H_cdH2            2.028e-11       0.000   2.042e-10      -9.690

H_cf          
	  6.378e-02  moles
	                                   Mole                     Log
	Species               Moles    Fraction    Molality    Molality

	H_cfH-            4.470e-02       0.701   4.502e-01      -0.347
	H_cfMg            1.013e-02       0.159   1.020e-01      -0.991
	H_cfCa            8.273e-03       0.130   8.332e-02      -1.079
	H_cf-2            6.426e-04       0.010   6.472e-03      -2.189
	H_cfH2            3.914e-05       0.001   3.942e-04      -3.404

H_ch          
	  6.378e-02  moles
	                                   Mole                     Log
	Species               Moles    Fraction    Molality    Molality

	H_chH-            4.515e-02       0.708   4.548e-01      -0.342
	H_chMg            1.023e-02       0.160   1.030e-01      -0.987
	H_chCa            8.357e-03       0.131   8.417e-02      -1.075
	H_chH2            3.954e-05       0.001   3.982e-04      -3.400
	H_ch-2            1.356e-07       0.000   1.366e-06      -5.865

H_d           
	  3.837e-02  moles
	                                   Mole                     Log
	Species               Moles    Fraction    Molality    Molality

	H_dMg+            2.110e-02       0.550   2.126e-01      -0.673
	H_dCa+            1.308e-02       0.341   1.317e-01      -0.880
	H_d-              4.139e-03       0.108   4.168e-02      -1.380
	H_dH              4.669e-05       0.001   4.703e-04      -3.328

H_de          
	  6.378e-05  moles
	                                   Mole                     Log
	Species               Moles    Fraction    Molality    Molality

	H_deMg            2.547e-05       0.399   2.565e-04      -3.591
	H_deCa            2.081e-05       0.326   2.096e-04      -3.679
	H_deH-            8.727e-06       0.137   8.789e-05      -4.056
	H_de-2            8.680e-06       0.136   8.742e-05      -4.058
	H_deH2            9.845e-08       0.002   9.915e-07      -6.004

H_dg          
	  6.378e-05  moles
	                                   Mole                     Log
	Species               Moles    Fraction    Molality    Molality

	H_dgMg            2.948e-05       0.462   2.969e-04      -3.527
	H_dgCa            2.408e-05       0.378   2.426e-04      -3.615
	H_dgH-            1.010e-05       0.158   1.017e-04      -3.993
	H_dgH2            1.140e-07       0.002   1.148e-06      -5.940
	H_dg-2            2.099e-09       0.000   2.114e-08      -7.675

H_e           
	  1.919e-02  moles
	                                   Mole                     Log
	Species               Moles    Fraction    Molality    Molality

	H_eH              9.102e-03       0.474   9.167e-02      -1.038
	H_e-              9.052e-03       0.472   9.117e-02      -1.040
	H_eMg+            6.227e-04       0.032   6.271e-03      -2.203
	H_eCa+            4.135e-04       0.022   4.164e-03      -2.380

H_f           
	  1.919e-02  moles
	                                   Mole                     Log
	Species               Moles    Fraction    Molality    Molality

	H_fH              1.701e-02       0.886   1.713e-01      -0.766
	H_fMg+            1.164e-03       0.061   1.172e-02      -1.931
	H_fCa+            7.727e-04       0.040   7.783e-03      -2.109
	H_f-              2.445e-04       0.013   2.463e-03      -2.609

H_g           
	  1.919e-02  moles
	                                   Mole                     Log
	Species               Moles    Fraction    Molality    Molality

	H_gH              1.723e-02       0.898   1.735e-01      -0.761
	H_gMg+            1.178e-03       0.061   1.187e-02      -1.926
	H_gCa+            7.826e-04       0.041   7.882e-03      -2.103
	H_g-              3.579e-06       0.000   3.605e-05      -4.443

H_h           
	  1.919e-02  moles
	                                   Mole                     Log
	Species               Moles    Fraction    Molality    Molality

	H_hH              1.723e-02       0.898   1.735e-01      -0.761
	H_hMg+            1.179e-03       0.061   1.187e-02      -1.926
	H_hCa+            7.827e-04       0.041   7.883e-03      -2.103
	H_h-              5.175e-08       0.000   5.212e-07      -6.283

Hfo           
	 -5.744e-13  Surface + diffuse layer charge, eq
	  1.367e-04  Surface charge, eq
	  7.851e-05  sigma, C/m²
	  1.578e-04  psi, V
	 -6.144e-03  -F*psi/RT
	  9.939e-01  exp(-F*psi/RT)
	  6.000e+02  specific area, m²/g
	  1.680e+05  m² for   2.800e+02 g

	Water in diffuse layer: 1.680e+00 kg,  7.6% of total DDL-water.

	Total moles in diffuse layer (excluding water), Donnan calculation.
	Donnan Layer potential, psi_DL =  2.205e-05 V.
	Boltzmann factor, exp(-psi_DL * F / RT) = 9.991e-01 (= c_DL / c_free if z is +1).

	Element       	     Moles
	C             	  2.8883e-03
	Ca            	  3.6043e-03
	Cl            	  4.6555e-02
	Ferric        	  4.3529e-08
	Ferrous       	  1.0036e-06
	H             	  8.7672e-03
	K             	  1.7687e-03
	Mg            	  7.3684e-03
	Na            	  4.4304e-02
	O             	  4.6088e-02
	P             	  2.9555e-06
	Sulfate       	  9.3720e-03
	Sulfide       	  4.4909e-06

Hfo_s         
	  5.000e-06  moles
	                                   Mole                     Log
	Species               Moles    Fraction    Molality    Molality

	Hfo_sOHCa+2       4.822e-06       0.964   4.857e-05      -4.314
	Hfo_sOFerrous+    9.359e-08       0.019   9.426e-07      -6.026
	Hfo_sOH           6.086e-08       0.012   6.130e-07      -6.213
	Hfo_sOH2+         1.889e-08       0.004   1.903e-07      -6.721
	Hfo_sO-           4.492e-09       0.001   4.524e-08      -7.345

Hfo_w         
	  2.000e-04  moles
	                                   Mole                     Log
	Species               Moles    Fraction    Molality    Molality

	Hfo_wOMg+         1.245e-04       0.623   1.254e-03      -2.902
	Hfo_wOH           4.577e-05       0.229   4.610e-04      -3.336
	Hfo_wOH2+         1.421e-05       0.071   1.431e-04      -3.844
	Hfo_wPO4-2        4.131e-06       0.021   4.160e-05      -4.381
	Hfo_wOCa+         3.448e-06       0.017   3.472e-05      -4.459
	Hfo_wO-           3.378e-06       0.017   3.402e-05      -4.468
	Hfo_wHPO4-        3.076e-06       0.015   3.098e-05      -4.509
	Hfo_wOFerrous+    6.568e-07       0.003   6.615e-06      -5.179
	Hfo_wOHSulfateO4-2   5.591e-07       0.003   5.631e-06      -5.249
	Hfo_wOFerrousOH   1.109e-07       0.001   1.117e-06      -5.952
	Hfo_wSulfateO4-   8.708e-08       0.000   8.770e-07      -6.057
	Hfo_wH2PO4        3.890e-08       0.000   3.918e-07      -6.407

-----------------------------Exchange composition------------------------------

X                8.000e+00 mol

	                               Equiv-    Equivalent      Log 
	Species             Moles      alents      Fraction     Gamma

	MgX2              2.215e+00   4.430e+00   5.537e-01     0.000
	NaX               1.729e+00   1.729e+00   2.162e-01     0.000
	CaX2              8.661e-01   1.732e+00   2.165e-01     0.000
	KX                1.078e-01   1.078e-01   1.347e-02     0.000
	FerrousX2         4.994e-04   9.987e-04   1.248e-04    -0.311
	HX                1.499e-05   1.499e-05   1.874e-06    -0.068

-----------------------------Solution composition------------------------------

	Elements           Molality       Moles

	C                 1.718e-03   1.706e-04
	Ca                2.149e-03   2.133e-04
	Cl                2.769e-02   2.749e-03
	Ferric            2.591e-08   2.573e-09
	Ferrous           5.982e-07   5.939e-08
	K                 1.054e-03   1.046e-04
	Mg                4.392e-03   4.361e-04
	Na                2.639e-02   2.621e-03
	P                 1.758e-06   1.745e-07
	Sulfate           5.571e-03   5.532e-04
	Sulfide           2.671e-06   2.652e-07

----------------------------Description of solution----------------------------

                                       pH  =   7.795      Charge balance
                                       pe  =  -7.998      Adjusted to redox equilibrium
      Specific Conductance (µS/cm,  25°C)  = 4078
                        Activity of water  =   0.999
                 Ionic strength (mol/kgw)  =   4.746e-02
                       Mass of water (kg)  =   9.929e-02
                 Total alkalinity (eq/kg)  =   1.698e-03
                       Total CO2 (mol/kg)  =   1.718e-03
                         Temperature (°C)  =  25.00
                  Electrical balance (eq)  =   8.652e-09
 Percent error, 100*(Cat-|An|)/(Cat+|An|)  =   0.00
                               Iterations  =  48
                                  Total H  = 1.102300e+01
                                  Total O  = 5.513960e+00

----------------------------Distribution of species----------------------------

                                               Log       Log       Log    mole V
   Species          Molality    Activity  Molality  Activity     Gamma   cm³/mol

   OH-             7.659e-07   6.242e-07    -6.116    -6.205    -0.089     (0)  
   H+              1.872e-08   1.602e-08    -7.728    -7.795    -0.068      0.00
   H2O             5.551e+01   9.988e-01     1.744    -0.001     0.000     18.07
C(4)          1.718e-03
   HCO3-           1.583e-03   1.316e-03    -2.800    -2.881    -0.080     (0)  
   CO2             4.695e-05   4.747e-05    -4.328    -4.324     0.005     (0)  
   MgHCO3+         3.263e-05   2.689e-05    -4.486    -4.570    -0.084     (0)  
   CaHCO3+         1.736e-05   1.444e-05    -4.760    -4.841    -0.080     (0)  
   NaHCO3          1.581e-05   1.598e-05    -4.801    -4.796     0.005     (0)  
   CO3-2           8.063e-06   3.854e-06    -5.094    -5.414    -0.321     (0)  
   MgCO3           6.352e-06   6.421e-06    -5.197    -5.192     0.005     (0)  
   CaCO3           5.504e-06   5.565e-06    -5.259    -5.255     0.005     (0)  
   NaCO3-          1.880e-06   1.549e-06    -5.726    -5.810    -0.084     (0)  
   FerrousHCO3+    3.528e-08   2.908e-08    -7.452    -7.536    -0.084     (0)  
   FerrousCO3      2.020e-08   2.042e-08    -7.695    -7.690     0.005     (0)  
Ca            2.149e-03
   Ca+2            1.794e-03   8.595e-04    -2.746    -3.066    -0.319     (0)  
   CaSulfateO4     3.319e-04   3.356e-04    -3.479    -3.474     0.005     (0)  
   CaHCO3+         1.736e-05   1.444e-05    -4.760    -4.841    -0.080     (0)  
   CaCO3           5.504e-06   5.565e-06    -5.259    -5.255     0.005     (0)  
   CaHPO4          1.754e-07   1.774e-07    -6.756    -6.751     0.005     (0)  
   CaPO4-          3.178e-08   2.620e-08    -7.498    -7.582    -0.084     (0)  
   CaOH+           1.079e-08   8.894e-09    -7.967    -8.051    -0.084     (0)  
   CaH2PO4+        2.591e-09   2.135e-09    -8.587    -8.671    -0.084     (0)  
   CaHSulfateO4+   3.821e-11   3.149e-11   -10.418   -10.502    -0.084     (0)  
Cl            2.769e-02
   Cl-             2.769e-02   2.260e-02    -1.558    -1.646    -0.088     (0)  
   FerrousCl+      8.361e-09   6.891e-09    -8.078    -8.162    -0.084     (0)  
   FerricCl+2      4.747e-19   2.190e-19   -18.324   -18.659    -0.336     (0)  
   FerricCl2+      2.683e-20   2.211e-20   -19.571   -19.655    -0.084     (0)  
   FerricCl3       4.944e-23   4.998e-23   -22.306   -22.301     0.005     (0)  
Ferric        2.591e-08
   Ferric(OH)3     2.120e-08   2.143e-08    -7.674    -7.669     0.005     (0)  
   Ferric(OH)2+    3.237e-09   2.668e-09    -8.490    -8.574    -0.084     (0)  
   Ferric(OH)4-    1.479e-09   1.219e-09    -8.830    -8.914    -0.084     (0)  
   FerricOH+2      2.800e-13   1.292e-13   -12.553   -12.889    -0.336     (0)  
   FerricSulfateO4+   8.354e-18   6.885e-18   -17.078   -17.162    -0.084     (0)  
   Ferric+3        1.302e-18   3.209e-19   -17.885   -18.494    -0.608     (0)  
   FerricCl+2      4.747e-19   2.190e-19   -18.324   -18.659    -0.336     (0)  
   Ferric(SulfateO4)2-   3.576e-19   2.948e-19   -18.447   -18.531    -0.084     (0)  
   FerricHPO4+     3.944e-20   3.251e-20   -19.404   -19.488    -0.084     (0)  
   FerricCl2+      2.683e-20   2.211e-20   -19.571   -19.655    -0.084     (0)  
   FerricH2PO4+2   1.818e-20   8.387e-21   -19.741   -20.076    -0.336     (0)  
   FerricCl3       4.944e-23   4.998e-23   -22.306   -22.301     0.005     (0)  
   Ferric2(OH)2+4   9.909e-24   4.493e-25   -23.004   -24.347    -1.344     (0)  
   FerricHSulfateO4+2   6.400e-25   2.953e-25   -24.194   -24.530    -0.336     (0)  
   Ferric3(OH)4+5   3.147e-29   2.504e-31   -28.502   -30.601    -2.099     (0)  
Ferrous       5.982e-07
   Ferrous+2       4.519e-07   2.209e-07    -6.345    -6.656    -0.311     (0)  
   FerrousSulfateO4   7.603e-08   7.686e-08    -7.119    -7.114     0.005     (0)  
   FerrousHCO3+    3.528e-08   2.908e-08    -7.452    -7.536    -0.084     (0)  
   FerrousCO3      2.020e-08   2.042e-08    -7.695    -7.690     0.005     (0)  
   FerrousCl+      8.361e-09   6.891e-09    -8.078    -8.162    -0.084     (0)  
   FerrousOH+      5.284e-09   4.355e-09    -8.277    -8.361    -0.084     (0)  
   Ferrous(HSulfide)2   7.442e-10   7.523e-10    -9.128    -9.124     0.005     (0)  
   FerrousHPO4     3.274e-10   3.310e-10    -9.485    -9.480     0.005     (0)  
   FerrousH2PO4+   1.304e-11   1.075e-11   -10.885   -10.969    -0.084     (0)  
   Ferrous(HSulfide)3-   1.943e-13   1.602e-13   -12.711   -12.795    -0.084     (0)  
   FerrousHSulfateO4+   9.819e-15   8.093e-15   -14.008   -14.092    -0.084     (0)  
H(0)          3.562e-03
   H2              1.781e-03   1.801e-03    -2.749    -2.745     0.005     (0)  
K             1.054e-03
   K+              1.040e-03   8.486e-04    -2.983    -3.071    -0.088     (0)  
   KSulfateO4-     1.416e-05   1.167e-05    -4.849    -4.933    -0.084     (0)  
   KHPO4-          7.556e-10   6.227e-10    -9.122    -9.206    -0.084     (0)  
   KOH             1.815e-10   1.835e-10    -9.741    -9.736     0.005     (0)  
Mg            4.392e-03
   Mg+2            3.560e-03   1.746e-03    -2.449    -2.758    -0.309     (0)  
   MgSulfateO4     7.922e-04   8.009e-04    -3.101    -3.096     0.005     (0)  
   MgHCO3+         3.263e-05   2.689e-05    -4.486    -4.570    -0.084     (0)  
   MgCO3           6.352e-06   6.421e-06    -5.197    -5.192     0.005     (0)  
   MgHPO4          4.818e-07   4.871e-07    -6.317    -6.312     0.005     (0)  
   MgOH+           4.796e-07   3.953e-07    -6.319    -6.403    -0.084     (0)  
   MgPO4-          8.709e-08   7.178e-08    -7.060    -7.144    -0.084     (0)  
   MgH2PO4+        6.702e-09   5.524e-09    -8.174    -8.258    -0.084     (0)  
Na            2.639e-02
   Na+             2.612e-02   2.158e-02    -1.583    -1.666    -0.083     (0)  
   NaSulfateO4-    2.568e-04   2.117e-04    -3.590    -3.674    -0.084     (0)  
   NaHCO3          1.581e-05   1.598e-05    -4.801    -4.796     0.005     (0)  
   NaCO3-          1.880e-06   1.549e-06    -5.726    -5.810    -0.084     (0)  
   NaHPO4-         1.922e-08   1.584e-08    -7.716    -7.800    -0.084     (0)  
   NaOH            8.796e-09   8.892e-09    -8.056    -8.051     0.005     (0)  
O(0)          0.000e+00
   O2              0.000e+00   0.000e+00   -86.897   -86.892     0.005     (0)  
P             1.758e-06
   HPO4-2          8.339e-07   3.764e-07    -6.079    -6.424    -0.346     (0)  
   MgHPO4          4.818e-07   4.871e-07    -6.317    -6.312     0.005     (0)  
   CaHPO4          1.754e-07   1.774e-07    -6.756    -6.751     0.005     (0)  
   H2PO4-          1.178e-07   9.710e-08    -6.929    -7.013    -0.084     (0)  
   MgPO4-          8.709e-08   7.178e-08    -7.060    -7.144    -0.084     (0)  
   CaPO4-          3.178e-08   2.620e-08    -7.498    -7.582    -0.084     (0)  
   NaHPO4-         1.922e-08   1.584e-08    -7.716    -7.800    -0.084     (0)  
   MgH2PO4+        6.702e-09   5.524e-09    -8.174    -8.258    -0.084     (0)  
   CaH2PO4+        2.591e-09   2.135e-09    -8.587    -8.671    -0.084     (0)  
   KHPO4-          7.556e-10   6.227e-10    -9.122    -9.206    -0.084     (0)  
   FerrousHPO4     3.274e-10   3.310e-10    -9.485    -9.480     0.005     (0)  
   PO4-3           6.345e-11   1.059e-11   -10.198   -10.975    -0.777     (0)  
   FerrousH2PO4+   1.304e-11   1.075e-11   -10.885   -10.969    -0.084     (0)  
   FerricHPO4+     3.944e-20   3.251e-20   -19.404   -19.488    -0.084     (0)  
   FerricH2PO4+2   1.818e-20   8.387e-21   -19.741   -20.076    -0.336     (0)  
Sulfate       5.571e-03
   SulfateO4-2     4.176e-03   1.957e-03    -2.379    -2.708    -0.329     (0)  
   MgSulfateO4     7.922e-04   8.009e-04    -3.101    -3.096     0.005     (0)  
   CaSulfateO4     3.319e-04   3.356e-04    -3.479    -3.474     0.005     (0)  
   NaSulfateO4-    2.568e-04   2.117e-04    -3.590    -3.674    -0.084     (0)  
   KSulfateO4-     1.416e-05   1.167e-05    -4.849    -4.933    -0.084     (0)  
   FerrousSulfateO4   7.603e-08   7.686e-08    -7.119    -7.114     0.005     (0)  
   HSulfateO4-     3.698e-09   3.047e-09    -8.432    -8.516    -0.084     (0)  
   CaHSulfateO4+   3.821e-11   3.149e-11   -10.418   -10.502    -0.084     (0)  
   FerrousHSulfateO4+   9.819e-15   8.093e-15   -14.008   -14.092    -0.084     (0)  
   FerricSulfateO4+   8.354e-18   6.885e-18   -17.078   -17.162    -0.084     (0)  
[...]
	Species               Moles    Fraction    Molality    Molality

	H_cdMg            3.469e-05       0.544   3.518e-04      -3.454
	H_cdCa            2.698e-05       0.423   2.736e-04      -3.563
	H_cd-2            2.087e-06       0.033   2.116e-05      -4.674
	H_cdH-            2.475e-08       0.000   2.510e-07      -6.600
	H_cdH2            2.278e-11       0.000   2.311e-10      -9.636

H_cf          
	  6.378e-02  moles
	                                   Mole                     Log
	Species               Moles    Fraction    Molality    Molality

	H_cfH-            4.557e-02       0.715   4.622e-01      -0.335
	H_cfMg            9.669e-03       0.152   9.806e-02      -1.008
	H_cfCa            7.873e-03       0.123   7.985e-02      -1.098
	H_cf-2            6.232e-04       0.010   6.321e-03      -2.199
	H_cfH2            4.195e-05       0.001   4.255e-04      -3.371

H_ch          
	  6.378e-02  moles
	                                   Mole                     Log
	Species               Moles    Fraction    Molality    Molality

	H_chH-            4.602e-02       0.722   4.668e-01      -0.331
	H_chMg            9.764e-03       0.153   9.903e-02      -1.004
	H_chCa            7.951e-03       0.125   8.063e-02      -1.093
	H_chH2            4.237e-05       0.001   4.297e-04      -3.367
	H_ch-2            1.315e-07       0.000   1.334e-06      -5.875

H_d           
	  3.837e-02  moles
	                                   Mole                     Log
	Species               Moles    Fraction    Molality    Molality

	H_dMg+            2.109e-02       0.550   2.139e-01      -0.670
	H_dCa+            1.303e-02       0.340   1.321e-01      -0.879
	H_d-              4.201e-03       0.109   4.261e-02      -1.371
	H_dH              4.982e-05       0.001   5.053e-04      -3.296

H_de          
	  6.378e-05  moles
	                                   Mole                     Log
	Species               Moles    Fraction    Molality    Molality

	H_deMg            2.520e-05       0.395   2.556e-04      -3.592
	H_deCa            2.052e-05       0.322   2.081e-04      -3.682
	H_deH-            9.221e-06       0.145   9.352e-05      -4.029
	H_de-2            8.724e-06       0.137   8.848e-05      -4.053
	H_deH2            1.094e-07       0.002   1.109e-06      -5.955

H_dg          
	  6.378e-05  moles
	                                   Mole                     Log
	Species               Moles    Fraction    Molality    Molality

	H_dgMg            2.920e-05       0.458   2.961e-04      -3.529
	H_dgCa            2.377e-05       0.373   2.411e-04      -3.618
	H_dgH-            1.068e-05       0.167   1.083e-04      -3.965
	H_dgH2            1.267e-07       0.002   1.285e-06      -5.891
	H_dg-2            2.111e-09       0.000   2.141e-08      -7.669

H_e           
	  1.919e-02  moles
	                                   Mole                     Log
	Species               Moles    Fraction    Molality    Molality

	H_eH              9.349e-03       0.487   9.482e-02      -1.023
	H_e-              8.845e-03       0.461   8.971e-02      -1.047
	H_eMg+            5.990e-04       0.031   6.075e-03      -2.216
	H_eCa+            3.965e-04       0.021   4.021e-03      -2.396

H_f           
	  1.919e-02  moles
	                                   Mole                     Log
	Species               Moles    Fraction    Molality    Molality

	H_fH              1.713e-02       0.893   1.737e-01      -0.760
	H_fMg+            1.098e-03       0.057   1.113e-02      -1.953
	H_fCa+            7.265e-04       0.038   7.368e-03      -2.133
	H_f-              2.343e-04       0.012   2.376e-03      -2.624

H_g           
	  1.919e-02  moles
	                                   Mole                     Log
	Species               Moles    Fraction    Molality    Molality

	H_gH              1.734e-02       0.904   1.759e-01      -0.755
	H_gMg+            1.111e-03       0.058   1.127e-02      -1.948
	H_gCa+            7.353e-04       0.038   7.458e-03      -2.127
	H_g-              3.428e-06       0.000   3.476e-05      -4.459

H_h           
	  1.919e-02  moles
	                                   Mole                     Log
	Species               Moles    Fraction    Molality    Molality

	H_hH              1.734e-02       0.904   1.759e-01      -0.755
	H_hMg+            1.111e-03       0.058   1.127e-02      -1.948
	H_hCa+            7.355e-04       0.038   7.459e-03      -2.127
	H_h-              4.955e-08       0.000   5.026e-07      -6.299

Hfo           
	 -3.477e-13  Surface + diffuse layer charge, eq
	  1.367e-04  Surface charge, eq
	  7.854e-05  sigma, C/m²
	  1.519e-04  psi, V
	 -5.913e-03  -F*psi/RT
	  9.941e-01  exp(-F*psi/RT)
	  6.000e+02  specific area, m²/g
	  1.680e+05  m² for   2.800e+02 g

	Water in diffuse layer: 1.680e+00 kg,  7.6% of total DDL-water.

	Total moles in diffuse layer (excluding water), Donnan calculation.
	Donnan Layer potential, psi_DL =  2.044e-05 V.
	Boltzmann factor, exp(-psi_DL * F / RT) = 9.992e-01 (= c_DL / c_free if z is +1).

	Element       	     Moles
	C             	  2.9651e-03
	Ca            	  4.0264e-03
	Cl            	  5.0446e-02
	Ferric        	  4.3890e-08
	Ferrous       	  1.1174e-06
	H             	  1.4631e-02
	K             	  1.8769e-03
	Mg            	  8.2547e-03
	Na            	  4.7091e-02
	O             	  4.9417e-02
	P             	  3.0940e-06
	Sulfate       	  1.0149e-02
	Sulfide       	  6.1352e-06

Hfo_s         
	  5.000e-06  moles
	                                   Mole                     Log
	Species               Moles    Fraction    Molality    Molality

	Hfo_sOHCa+2       4.836e-06       0.967   4.905e-05      -4.309
	Hfo_sOFerrous+    8.466e-08       0.017   8.586e-07      -6.066
	Hfo_sOH           5.591e-08       0.011   5.670e-07      -6.246
	Hfo_sOH2+         1.925e-08       0.004   1.952e-07      -6.710
	Hfo_sO-           3.721e-09       0.001   3.774e-08      -7.423

Hfo_w         
	  2.000e-04  moles
	                                   Mole                     Log
	Species               Moles    Fraction    Molality    Molality

	Hfo_wOMg+         1.231e-04       0.615   1.248e-03      -2.904
	Hfo_wOH           4.578e-05       0.229   4.643e-04      -3.333
	Hfo_wOH2+         1.576e-05       0.079   1.598e-04      -3.796
	Hfo_wPO4-2        4.097e-06       0.020   4.155e-05      -4.381
	Hfo_wOCa+         3.395e-06       0.017   3.444e-05      -4.463
	Hfo_wHPO4-        3.383e-06       0.017   3.431e-05      -4.465
	Hfo_wO-           3.047e-06       0.015   3.090e-05      -4.510
	Hfo_wOFerrous+    6.469e-07       0.003   6.561e-06      -5.183
	Hfo_wOHSulfateO4-2   5.829e-07       0.003   5.912e-06      -5.228
	Hfo_wSulfateO4-   1.007e-07       0.001   1.021e-06      -5.991
	Hfo_wOFerrousOH   9.851e-08       0.000   9.990e-07      -6.000
	Hfo_wH2PO4        4.744e-08       0.000   4.811e-07      -6.318

-----------------------------Exchange composition------------------------------

X                8.000e+00 mol

	                               Equiv-    Equivalent      Log 
	Species             Moles      alents      Fraction     Gamma

	MgX2              2.211e+00   4.422e+00   5.528e-01     0.000
	NaX               1.745e+00   1.745e+00   2.181e-01     0.000
	CaX2              8.617e-01   1.723e+00   2.154e-01     0.000
	KX                1.084e-01   1.084e-01   1.355e-02     0.000
	FerrousX2         5.067e-04   1.013e-03   1.267e-04    -0.319
	HX                1.593e-05   1.593e-05   1.991e-06    -0.069

-----------------------------Solution composition------------------------------

	Elements           Molality       Moles

	C                 1.764e-03   1.739e-04
	Ca                2.400e-03   2.366e-04
	Cl                3.000e-02   2.958e-03
	Ferric            2.613e-08   2.576e-09
	Ferrous           6.659e-07   6.566e-08
	K                 1.118e-03   1.102e-04
	Mg                4.920e-03   4.851e-04
	Na                2.805e-02   2.766e-03
	P                 1.840e-06   1.814e-07
	Sulfate           6.034e-03   5.949e-04
	Sulfide           3.649e-06   3.598e-07

----------------------------Description of solution----------------------------

                                       pH  =   7.751      Charge balance
                                       pe  =  -8.101      Adjusted to redox equilibrium
      Specific Conductance (µS/cm,  25°C)  = 4371
                        Activity of water  =   0.999
                 Ionic strength (mol/kgw)  =   5.128e-02
                       Mass of water (kg)  =   9.860e-02
                 Total alkalinity (eq/kg)  =   1.738e-03
                       Total CO2 (mol/kg)  =   1.764e-03
                         Temperature (°C)  =  25.00
                  Electrical balance (eq)  =   1.889e-08
 Percent error, 100*(Cat-|An|)/(Cat+|An|)  =   0.00
                               Iterations  =  48
                                  Total H  = 1.094674e+01
                                  Total O  = 5.475840e+00

----------------------------Distribution of species----------------------------

                                               Log       Log       Log    mole V
   Species          Molality    Activity  Molality  Activity     Gamma   cm³/mol

   OH-             6.952e-07   5.630e-07    -6.158    -6.250    -0.092     (0)  
   H+              2.083e-08   1.776e-08    -7.681    -7.751    -0.069      0.00
   H2O             5.551e+01   9.987e-01     1.744    -0.001     0.000     18.07
C(4)          1.764e-03
   HCO3-           1.617e-03   1.337e-03    -2.791    -2.874    -0.082     (0)  
   CO2             5.284e-05   5.347e-05    -4.277    -4.272     0.005     (0)  
   MgHCO3+         3.649e-05   2.992e-05    -4.438    -4.524    -0.086     (0)  
   CaHCO3+         1.935e-05   1.600e-05    -4.713    -4.796    -0.082     (0)  
   NaHCO3          1.695e-05   1.715e-05    -4.771    -4.766     0.005     (0)  
   CO3-2           7.543e-06   3.532e-06    -5.122    -5.452    -0.330     (0)  
   MgCO3           6.367e-06   6.443e-06    -5.196    -5.191     0.005     (0)  
   CaCO3           5.500e-06   5.565e-06    -5.260    -5.255     0.005     (0)  
   NaCO3-          1.830e-06   1.500e-06    -5.738    -5.824    -0.086     (0)  
   FerrousHCO3+    3.933e-08   3.224e-08    -7.405    -7.492    -0.086     (0)  
   FerrousCO3      2.018e-08   2.042e-08    -7.695    -7.690     0.005     (0)  
Ca            2.400e-03
   Ca+2            1.997e-03   9.380e-04    -2.700    -3.028    -0.328     (0)  
   CaSulfateO4     3.774e-04   3.819e-04    -3.423    -3.418     0.005     (0)  
   CaHCO3+         1.935e-05   1.600e-05    -4.713    -4.796    -0.082     (0)  
   CaCO3           5.500e-06   5.565e-06    -5.260    -5.255     0.005     (0)  
   CaHPO4          1.897e-07   1.920e-07    -6.722    -6.717     0.005     (0)  
   CaPO4-          3.120e-08   2.558e-08    -7.506    -7.592    -0.086     (0)  
   CaOH+           1.068e-08   8.754e-09    -7.971    -8.058    -0.086     (0)  
   CaH2PO4+        3.126e-09   2.563e-09    -8.505    -8.591    -0.086     (0)  
   CaHSulfateO4+   4.847e-11   3.973e-11   -10.315   -10.401    -0.086     (0)  
Cl            3.000e-02
   Cl-             3.000e-02   2.434e-02    -1.523    -1.614    -0.091     (0)  
   FerrousCl+      9.881e-09   8.100e-09    -8.005    -8.092    -0.086     (0)  
   FerricCl+2      7.120e-19   3.215e-19   -18.147   -18.493    -0.345     (0)  
   FerricCl2+      4.264e-20   3.496e-20   -19.370   -19.456    -0.086     (0)  
   FerricCl3       8.408e-23   8.508e-23   -22.075   -22.070     0.005     (0)  
Ferric        2.613e-08
   Ferric(OH)3     2.118e-08   2.143e-08    -7.674    -7.669     0.005     (0)  
   Ferric(OH)2+    3.608e-09   2.958e-09    -8.443    -8.529    -0.086     (0)  
   Ferric(OH)4-    1.341e-09   1.099e-09    -8.873    -8.959    -0.086     (0)  
   FerricOH+2      3.517e-13   1.588e-13   -12.454   -12.799    -0.345     (0)  
   FerricSulfateO4+   1.194e-17   9.788e-18   -16.923   -17.009    -0.086     (0)  
   Ferric+3        1.835e-18   4.374e-19   -17.736   -18.359    -0.623     (0)  
   FerricCl+2      7.120e-19   3.215e-19   -18.147   -18.493    -0.345     (0)  
   Ferric(SulfateO4)2-   5.331e-19   4.370e-19   -18.273   -18.360    -0.086     (0)  
   FerricHPO4+     5.362e-20   4.395e-20   -19.271   -19.357    -0.086     (0)  
   FerricCl2+      4.264e-20   3.496e-20   -19.370   -19.456    -0.086     (0)  
   FerricH2PO4+2   2.784e-20   1.257e-20   -19.555   -19.901    -0.345     (0)  
   FerricCl3       8.408e-23   8.508e-23   -22.075   -22.070     0.005     (0)  
   Ferric2(OH)2+4   1.633e-23   6.790e-25   -22.787   -24.168    -1.381     (0)  
   FerricHSulfateO4+2   1.031e-24   4.655e-25   -23.987   -24.332    -0.345     (0)  
   Ferric3(OH)4+5   6.039e-29   4.196e-31   -28.219   -30.377    -2.158     (0)  
Ferrous       6.659e-07
   Ferrous+2       5.030e-07   2.411e-07    -6.298    -6.618    -0.319     (0)  
   FerrousSulfateO4   8.646e-08   8.749e-08    -7.063    -7.058     0.005     (0)  
   FerrousHCO3+    3.933e-08   3.224e-08    -7.405    -7.492    -0.086     (0)  
   FerrousCO3      2.018e-08   2.042e-08    -7.695    -7.690     0.005     (0)  
   FerrousCl+      9.881e-09   8.100e-09    -8.005    -8.092    -0.086     (0)  
   FerrousOH+      5.230e-09   4.287e-09    -8.281    -8.368    -0.086     (0)  
   Ferrous(HSulfide)2   1.465e-09   1.482e-09    -8.834    -8.829     0.005     (0)  
   FerrousHPO4     3.541e-10   3.583e-10    -9.451    -9.446     0.005     (0)  
   FerrousH2PO4+   1.574e-11   1.290e-11   -10.803   -10.889    -0.086     (0)  
   Ferrous(HSulfide)3-   5.171e-13   4.239e-13   -12.286   -12.373    -0.086     (0)  
   FerrousHSulfateO4+   1.246e-14   1.021e-14   -13.905   -13.991    -0.086     (0)  
H(0)          7.011e-03
   H2              3.506e-03   3.547e-03    -2.455    -2.450     0.005     (0)  
K             1.118e-03
   K+              1.102e-03   8.943e-04    -2.958    -3.049    -0.091     (0)  
   KSulfateO4-     1.564e-05   1.282e-05    -4.806    -4.892    -0.086     (0)  
   KHPO4-          7.941e-10   6.510e-10    -9.100    -9.186    -0.086     (0)  
   KOH             1.723e-10   1.744e-10    -9.764    -9.758     0.005     (0)  
Mg            4.920e-03
   Mg+2            3.972e-03   1.912e-03    -2.401    -2.719    -0.318     (0)  
   MgSulfateO4     9.038e-04   9.146e-04    -3.044    -3.039     0.005     (0)  
   MgHCO3+         3.649e-05   2.992e-05    -4.438    -4.524    -0.086     (0)  
   MgCO3           6.367e-06   6.443e-06    -5.196    -5.191     0.005     (0)  
   MgHPO4          5.229e-07   5.291e-07    -6.282    -6.276     0.005     (0)  
   MgOH+           4.762e-07   3.904e-07    -6.322    -6.409    -0.086     (0)  
   MgPO4-          8.579e-08   7.033e-08    -7.067    -7.153    -0.086     (0)  
   MgH2PO4+        8.114e-09   6.652e-09    -8.091    -8.177    -0.086     (0)  
Na            2.805e-02
   Na+             2.775e-02   2.281e-02    -1.557    -1.642    -0.085     (0)  
   NaSulfateO4-    2.846e-04   2.333e-04    -3.546    -3.632    -0.086     (0)  
   NaHCO3          1.695e-05   1.715e-05    -4.771    -4.766     0.005     (0)  
   NaCO3-          1.830e-06   1.500e-06    -5.738    -5.824    -0.086     (0)  
   NaHPO4-         2.025e-08   1.660e-08    -7.694    -7.780    -0.086     (0)  
   NaOH            8.375e-09   8.474e-09    -8.077    -8.072     0.005     (0)  
O(0)          0.000e+00
   O2              0.000e+00   0.000e+00   -87.486   -87.481     0.005     (0)  
P             1.840e-06
   HPO4-2          8.475e-07   3.733e-07    -6.072    -6.428    -0.356     (0)  
   MgHPO4          5.229e-07   5.291e-07    -6.282    -6.276     0.005     (0)  
   CaHPO4          1.897e-07   1.920e-07    -6.722    -6.717     0.005     (0)  
   H2PO4-          1.303e-07   1.068e-07    -6.885    -6.972    -0.087     (0)  
   MgPO4-          8.579e-08   7.033e-08    -7.067    -7.153    -0.086     (0)  
   CaPO4-          3.120e-08   2.558e-08    -7.506    -7.592    -0.086     (0)  
   NaHPO4-         2.025e-08   1.660e-08    -7.694    -7.780    -0.086     (0)  
   MgH2PO4+        8.114e-09   6.652e-09    -8.091    -8.177    -0.086     (0)  
   CaH2PO4+        3.126e-09   2.563e-09    -8.505    -8.591    -0.086     (0)  
   KHPO4-          7.941e-10   6.510e-10    -9.100    -9.186    -0.086     (0)  
   FerrousHPO4     3.541e-10   3.583e-10    -9.451    -9.446     0.005     (0)  
   PO4-3           5.995e-11   9.477e-12   -10.222   -11.023    -0.801     (0)  
   FerrousH2PO4+   1.574e-11   1.290e-11   -10.803   -10.889    -0.086     (0)  
   FerricHPO4+     5.362e-20   4.395e-20   -19.271   -19.357    -0.086     (0)  
   FerricH2PO4+2   2.784e-20   1.257e-20   -19.555   -19.901    -0.345     (0)  
Sulfate       6.034e-03
   SulfateO4-2     4.452e-03   2.041e-03    -2.351    -2.690    -0.339     (0)  
   MgSulfateO4     9.038e-04   9.146e-04    -3.044    -3.039     0.005     (0)  
   CaSulfateO4     3.774e-04   3.819e-04    -3.423    -3.418     0.005     (0)  
   NaSulfateO4-    2.846e-04   2.333e-04    -3.546    -3.632    -0.086     (0)  
   KSulfateO4-     1.564e-05   1.282e-05    -4.806    -4.892    -0.086     (0)  
   FerrousSulfateO4   8.646e-08   8.749e-08    -7.063    -7.058     0.005     (0)  
   HSulfateO4-     4.298e-09   3.523e-09    -8.367    -8.453    -0.086     (0)  
   CaHSulfateO4+   4.847e-11   3.973e-11   -10.315   -10.401    -0.086     (0)  
   FerrousHSulfateO4+   1.246e-14   1.021e-14   -13.905   -13.991    -0.086     (0)  
   FerricSulfateO4+   1.194e-17   9.788e-18   -16.923   -17.009    -0.086     (0)  
   Ferric(SulfateO4)2-   5.331e-19   4.370e-19   -18.273   -18.360    -0.086     (0)  
   FerricHSulfateO4+2   1.031e-24   4.655e-25   -23.987   -24.332    -0.345     (0)  
Sulfide       3.649e-06
   HSulfide-       3.243e-06   2.626e-06    -5.489    -5.581    -0.092     (0)  
   H2Sulfide       4.030e-07   4.078e-07    -6.395    -6.390     0.005     (0)  
   Ferrous(HSulfide)2   1.465e-09   1.482e-09    -8.834    -8.829     0.005     (0)  
   Sulfide-2       3.879e-11   1.786e-11   -10.411   -10.748    -0.337     (0)  
   Ferrous(HSulfide)3-   5.171e-13   4.239e-13   -12.286   -12.373    -0.086     (0)  

------------------------------Saturation indices-------------------------------

  Phase               SI** log IAP   log K(298 K,   1 atm)

  FixpH            -7.75     -7.75    0.00  H+
  H2(g)             0.70     -2.45   -3.15  H2
  H2O(g)           -1.51     -0.00    1.51  H2O
  Halite           -4.84     -3.26    1.58  NaCl
  Hydroxyapatite    0.00     -3.42   -3.42  Ca5(PO4)3OH
  redoxAnhydrite   -1.36     -5.72   -4.36  CaSulfateO4
  redoxAragonite   -0.14     -8.48   -8.34  CaCO3
  redoxCalcite      0.00     -8.48   -8.48  CaCO3
  redoxCO2(g)      -2.80     -4.27   -1.47  CO2
  redoxDolomite     0.44    -16.65  -17.09  CaMg(CO3)2
  redoxFe(OH)3(a)  -0.00      4.89    4.89  Ferric(OH)3
  redoxFeS(ppt)    -0.53     -4.45   -3.92  FerrousSulfide
  redoxGoethite     5.89      4.89   -1.00  FerricOOH
  redoxGypsum      -1.14     -5.72   -4.58  CaSulfateO4:2H2O
  redoxH2S(g)      -5.39     -6.39   -1.00  H2Sulfide
  redoxHematite    13.79      9.78   -4.01  Ferric2O3
  redoxJarosite-K  -7.80    -17.01   -9.21  KFerric3(SulfateO4)2(OH)6
  redoxMackinawite   0.20     -4.45   -4.65  FerrousSulfide
  redoxMelanterite  -7.10     -9.31   -2.21  FerrousSulfateO4:7H2O
  redoxPyrite       0.00    -18.48  -18.48  FerrousSulfide2
  redoxSiderite    -1.18    -12.07  -10.89  FerrousCO3
  redoxSulfur     -11.97     -7.09    4.88  Sulfide
  redoxVivianite   -5.90    -41.90  -36.00  Ferrous3(PO4)2:8H2O

**For a gas, SI = log10(fugacity). Fugacity = pressure * phi / 1 atm.
  For ideal gases, phi = 1.

------------------
End of simulation.
------------------

------------------------------------
Reading input data for simulation 3.
------------------------------------

---------------------------------
End of Run after 1.81503 Seconds.
---------------------------------

